<?xml version="1.0" encoding="UTF-8"?>

<!-- generated on 07/31/22 13:06:03 by Eclipse SUMO netconvert Version 1.8.0
<configuration xmlns:xsi="http://www.w3.org/2001/XMLSchema-instance" xsi:noNamespaceSchemaLocation="http://sumo.dlr.de/xsd/netconvertConfiguration.xsd">

    <input>
        <osm-files value="ahu.osm"/>
    </input>

    <output>
        <output-file value="ahu.net.xml"/>
    </output>

    <projection>
        <proj.utm value="true"/>
    </projection>

    <report>
        <aggregate-warnings value="5"/>
    </report>

</configuration>
-->

<net version="1.6" junctionCornerDetail="5" limitTurnSpeed="5.50" xmlns:xsi="http://www.w3.org/2001/XMLSchema-instance" xsi:noNamespaceSchemaLocation="http://sumo.dlr.de/xsd/net_file.xsd">

    <location netOffset="-524494.47,-3506476.81" convBoundary="0.00,0.00,8968.72,21306.52" origBoundary="117.194907,31.682429,117.394810,31.885474" projParameter="+proj=utm +zone=50 +ellps=WGS84 +datum=WGS84 +units=m +no_defs"/>

    <type id="highway.bridleway" priority="1" numLanes="1" speed="2.78" allow="pedestrian" oneway="1" width="2.00"/>
    <type id="highway.bus_guideway" priority="1" numLanes="1" speed="27.78" allow="bus" oneway="1"/>
    <type id="highway.cycleway" priority="1" numLanes="1" speed="8.33" allow="bicycle" oneway="0" width="1.00"/>
    <type id="highway.footway" priority="1" numLanes="1" speed="2.78" allow="pedestrian" oneway="1" width="2.00"/>
    <type id="highway.ford" priority="1" numLanes="1" speed="2.78" allow="army" oneway="0"/>
    <type id="highway.living_street" priority="2" numLanes="1" speed="2.78" disallow="tram rail_urban rail rail_electric rail_fast ship" oneway="0"/>
    <type id="highway.motorway" priority="14" numLanes="2" speed="39.44" allow="private emergency authority army vip passenger hov taxi bus coach delivery truck trailer motorcycle evehicle custom1 custom2" oneway="1"/>
    <type id="highway.motorway_link" priority="9" numLanes="1" speed="22.22" allow="private emergency authority army vip passenger hov taxi bus coach delivery truck trailer motorcycle evehicle custom1 custom2" oneway="1"/>
    <type id="highway.path" priority="1" numLanes="1" speed="2.78" allow="pedestrian bicycle" oneway="0" width="2.00"/>
    <type id="highway.pedestrian" priority="1" numLanes="1" speed="2.78" allow="pedestrian" oneway="1" width="2.00"/>
    <type id="highway.primary" priority="12" numLanes="2" speed="27.78" disallow="tram rail_urban rail rail_electric rail_fast ship" oneway="0"/>
    <type id="highway.primary_link" priority="7" numLanes="1" speed="22.22" disallow="tram rail_urban rail rail_electric rail_fast ship" oneway="0"/>
    <type id="highway.raceway" priority="15" numLanes="2" speed="83.33" allow="vip" oneway="0"/>
    <type id="highway.residential" priority="3" numLanes="1" speed="13.89" disallow="tram rail_urban rail rail_electric rail_fast ship" oneway="0"/>
    <type id="highway.secondary" priority="11" numLanes="1" speed="27.78" disallow="tram rail_urban rail rail_electric rail_fast ship" oneway="0"/>
    <type id="highway.secondary_link" priority="6" numLanes="1" speed="22.22" disallow="tram rail_urban rail rail_electric rail_fast ship" oneway="0"/>
    <type id="highway.service" priority="1" numLanes="1" speed="5.56" allow="pedestrian delivery bicycle" oneway="0"/>
    <type id="highway.stairs" priority="1" numLanes="1" speed="1.39" allow="pedestrian" oneway="1" width="2.00"/>
    <type id="highway.step" priority="1" numLanes="1" speed="1.39" allow="pedestrian" oneway="1" width="2.00"/>
    <type id="highway.steps" priority="1" numLanes="1" speed="1.39" allow="pedestrian" oneway="1" width="2.00"/>
    <type id="highway.tertiary" priority="10" numLanes="1" speed="22.22" disallow="tram rail_urban rail rail_electric rail_fast ship" oneway="0"/>
    <type id="highway.tertiary_link" priority="5" numLanes="1" speed="22.22" disallow="tram rail_urban rail rail_electric rail_fast ship" oneway="0"/>
    <type id="highway.track" priority="1" numLanes="1" speed="5.56" allow="pedestrian motorcycle moped bicycle" oneway="0"/>
    <type id="highway.trunk" priority="13" numLanes="2" speed="27.78" disallow="pedestrian bicycle tram rail_urban rail rail_electric rail_fast ship" oneway="0"/>
    <type id="highway.trunk_link" priority="8" numLanes="1" speed="22.22" disallow="pedestrian bicycle tram rail_urban rail rail_electric rail_fast ship" oneway="0"/>
    <type id="highway.unclassified" priority="4" numLanes="1" speed="13.89" disallow="tram rail_urban rail rail_electric rail_fast ship" oneway="0"/>
    <type id="highway.unsurfaced" priority="1" numLanes="1" speed="8.33" disallow="tram rail_urban rail rail_electric rail_fast ship" oneway="0"/>
    <type id="railway.highspeed" priority="21" numLanes="1" speed="69.44" allow="rail_fast" oneway="1"/>
    <type id="railway.light_rail" priority="19" numLanes="1" speed="27.78" allow="rail_urban" oneway="1"/>
    <type id="railway.preserved" priority="16" numLanes="1" speed="27.78" allow="rail" oneway="1"/>
    <type id="railway.rail" priority="20" numLanes="1" speed="44.44" allow="rail" oneway="1"/>
    <type id="railway.subway" priority="18" numLanes="1" speed="27.78" allow="rail_urban" oneway="1"/>
    <type id="railway.tram" priority="17" numLanes="1" speed="13.89" allow="tram" oneway="1"/>

    <edge id=":1017575695_0" function="internal">
        <lane id=":1017575695_0_0" index="0" disallow="tram rail_urban rail rail_electric rail_fast ship" speed="27.78" length="14.41" shape="3595.72,5484.51 3595.70,5470.11"/>
        <lane id=":1017575695_0_1" index="1" disallow="tram rail_urban rail rail_electric rail_fast ship" speed="27.78" length="14.41" shape="3598.92,5484.51 3598.90,5470.10"/>
    </edge>
    <edge id=":1017575695_2" function="internal">
        <lane id=":1017575695_2_0" index="0" disallow="tram rail_urban rail rail_electric rail_fast ship" speed="6.51" length="4.29" shape="3598.92,5484.51 3599.27,5482.06 3600.20,5480.51"/>
    </edge>
    <edge id=":1017575695_6" function="internal">
        <lane id=":1017575695_6_0" index="0" disallow="tram rail_urban rail rail_electric rail_fast ship" speed="6.51" length="4.75" shape="3600.20,5480.51 3600.32,5480.31 3602.07,5479.25 3604.52,5478.90"/>
    </edge>
    <edge id=":1017575695_3" function="internal">
        <lane id=":1017575695_3_0" index="0" disallow="tram rail_urban rail rail_electric rail_fast ship" speed="6.51" length="9.03" shape="3590.11,5475.72 3592.56,5475.36 3594.31,5474.31 3595.36,5472.56 3595.70,5470.11"/>
    </edge>
    <edge id=":1017575695_4" function="internal">
        <lane id=":1017575695_4_0" index="0" disallow="tram rail_urban rail rail_electric rail_fast ship" speed="27.78" length="14.40" shape="3590.11,5475.72 3604.51,5475.70"/>
        <lane id=":1017575695_4_1" index="1" disallow="tram rail_urban rail rail_electric rail_fast ship" speed="27.78" length="14.40" shape="3590.12,5478.92 3604.52,5478.90"/>
    </edge>
    <edge id=":1042058385_0" function="internal">
        <lane id=":1042058385_0_0" index="0" disallow="tram rail_urban rail rail_electric rail_fast ship" speed="6.54" length="9.13" shape="3596.46,6533.59 3596.11,6531.09 3595.06,6529.31 3593.30,6528.24 3590.85,6527.88"/>
    </edge>
    <edge id=":1042058385_1" function="internal">
        <lane id=":1042058385_1_0" index="0" disallow="tram rail_urban rail rail_electric rail_fast ship" speed="27.78" length="14.50" shape="3596.46,6533.59 3596.45,6519.09"/>
        <lane id=":1042058385_1_1" index="1" disallow="tram rail_urban rail rail_electric rail_fast ship" speed="27.78" length="14.50" shape="3599.66,6533.59 3599.65,6519.08"/>
    </edge>
    <edge id=":1042058385_3" function="internal">
        <lane id=":1042058385_3_0" index="0" disallow="tram rail_urban rail rail_electric rail_fast ship" speed="7.27" length="11.78" shape="3599.66,6533.59 3600.02,6529.72 3601.09,6526.99 3602.88,6525.38 3605.39,6524.90"/>
    </edge>
    <edge id=":1042058385_4" function="internal">
        <lane id=":1042058385_4_0" index="0" disallow="tram rail_urban rail rail_electric rail_fast ship" speed="22.22" length="14.46" shape="3605.30,6528.10 3590.85,6527.88"/>
    </edge>
    <edge id=":1042058385_5" function="internal">
        <lane id=":1042058385_5_0" index="0" disallow="tram rail_urban rail rail_electric rail_fast ship" speed="7.45" length="11.89" shape="3605.30,6528.10 3602.83,6527.47 3601.07,6525.76 3600.01,6522.97 3599.65,6519.08"/>
    </edge>
    <edge id=":1042058385_6" function="internal">
        <lane id=":1042058385_6_0" index="0" disallow="tram rail_urban rail rail_electric rail_fast ship" speed="3.65" length="4.67" shape="3605.30,6528.10 3604.13,6527.26 3603.75,6526.45 3604.17,6525.66 3605.39,6524.90"/>
    </edge>
    <edge id=":1042058385_7" function="internal">
        <lane id=":1042058385_7_0" index="0" disallow="tram rail_urban rail rail_electric rail_fast ship" speed="6.50" length="9.03" shape="3590.85,6524.68 3593.30,6524.33 3595.06,6523.29 3596.11,6521.54 3596.45,6519.09"/>
    </edge>
    <edge id=":1042058385_8" function="internal">
        <lane id=":1042058385_8_0" index="0" disallow="tram rail_urban rail rail_electric rail_fast ship" speed="22.22" length="14.54" shape="3590.85,6524.68 3605.39,6524.90"/>
    </edge>
    <edge id=":1042058385_9" function="internal">
        <lane id=":1042058385_9_0" index="0" disallow="tram rail_urban rail rail_electric rail_fast ship" speed="3.65" length="4.67" shape="3590.85,6524.68 3592.05,6525.48 3592.45,6526.28 3592.05,6527.08 3590.85,6527.88"/>
    </edge>
    <edge id=":1042058408_0" function="internal">
        <lane id=":1042058408_0_0" index="0" disallow="tram rail_urban rail rail_electric rail_fast ship" speed="27.78" length="14.41" shape="3596.91,7178.48 3596.90,7164.07"/>
        <lane id=":1042058408_0_1" index="1" disallow="tram rail_urban rail rail_electric rail_fast ship" speed="27.78" length="14.41" shape="3600.11,7178.48 3600.10,7164.06"/>
    </edge>
    <edge id=":1042058408_2" function="internal">
        <lane id=":1042058408_2_0" index="0" disallow="tram rail_urban rail rail_electric rail_fast ship" speed="6.50" length="4.28" shape="3600.11,7178.48 3600.46,7176.03 3601.39,7174.48"/>
    </edge>
    <edge id=":1042058408_6" function="internal">
        <lane id=":1042058408_6_0" index="0" disallow="tram rail_urban rail rail_electric rail_fast ship" speed="6.50" length="4.75" shape="3601.39,7174.48 3601.51,7174.28 3603.26,7173.23 3605.71,7172.88"/>
    </edge>
    <edge id=":1042058408_3" function="internal">
        <lane id=":1042058408_3_0" index="0" disallow="tram rail_urban rail rail_electric rail_fast ship" speed="6.50" length="9.03" shape="3591.30,7169.66 3593.75,7169.32 3595.51,7168.27 3596.55,7166.52 3596.90,7164.07"/>
    </edge>
    <edge id=":1042058408_4" function="internal">
        <lane id=":1042058408_4_0" index="0" disallow="tram rail_urban rail rail_electric rail_fast ship" speed="27.78" length="14.41" shape="3591.30,7169.66 3605.72,7169.68"/>
        <lane id=":1042058408_4_1" index="1" disallow="tram rail_urban rail rail_electric rail_fast ship" speed="27.78" length="14.41" shape="3591.30,7172.86 3605.71,7172.88"/>
    </edge>
    <edge id=":1042058411_0" function="internal">
        <lane id=":1042058411_0_0" index="0" disallow="tram rail_urban rail rail_electric rail_fast ship" speed="6.51" length="9.04" shape="3596.23,6199.40 3595.88,6196.95 3594.82,6195.20 3593.07,6194.15 3590.62,6193.80"/>
    </edge>
    <edge id=":1042058411_1" function="internal">
        <lane id=":1042058411_1_0" index="0" disallow="tram rail_urban rail rail_electric rail_fast ship" speed="27.78" length="14.40" shape="3596.23,6199.40 3596.22,6185.00"/>
        <lane id=":1042058411_1_1" index="1" disallow="tram rail_urban rail rail_electric rail_fast ship" speed="27.78" length="14.40" shape="3599.43,6199.40 3599.42,6185.00"/>
    </edge>
    <edge id=":1042058411_3" function="internal">
        <lane id=":1042058411_3_0" index="0" disallow="tram rail_urban rail rail_electric rail_fast ship" speed="7.32" length="11.73" shape="3599.43,6199.40 3599.78,6195.55 3600.82,6192.80 3602.57,6191.15 3605.02,6190.60"/>
    </edge>
    <edge id=":1042058411_4" function="internal">
        <lane id=":1042058411_4_0" index="0" disallow="tram rail_urban rail rail_electric rail_fast ship" speed="22.22" length="14.40" shape="3605.02,6193.80 3590.62,6193.80"/>
    </edge>
    <edge id=":1042058411_5" function="internal">
        <lane id=":1042058411_5_0" index="0" disallow="tram rail_urban rail rail_electric rail_fast ship" speed="7.33" length="11.73" shape="3605.02,6193.80 3602.57,6193.25 3600.82,6191.60 3599.77,6188.85 3599.42,6185.00"/>
    </edge>
    <edge id=":1042058411_6" function="internal">
        <lane id=":1042058411_6_0" index="0" disallow="tram rail_urban rail rail_electric rail_fast ship" speed="3.65" length="4.67" shape="3605.02,6193.80 3603.82,6193.00 3603.42,6192.20 3603.82,6191.40 3605.02,6190.60"/>
    </edge>
    <edge id=":1042058411_7" function="internal">
        <lane id=":1042058411_7_0" index="0" disallow="tram rail_urban rail rail_electric rail_fast ship" speed="6.51" length="9.03" shape="3590.62,6190.60 3593.07,6190.25 3594.82,6189.20 3595.87,6187.45 3596.22,6185.00"/>
    </edge>
    <edge id=":1042058411_8" function="internal">
        <lane id=":1042058411_8_0" index="0" disallow="tram rail_urban rail rail_electric rail_fast ship" speed="22.22" length="14.40" shape="3590.62,6190.60 3605.02,6190.60"/>
    </edge>
    <edge id=":1042058411_9" function="internal">
        <lane id=":1042058411_9_0" index="0" disallow="tram rail_urban rail rail_electric rail_fast ship" speed="3.65" length="4.67" shape="3590.62,6190.60 3591.82,6191.40 3592.22,6192.20 3591.82,6193.00 3590.62,6193.80"/>
    </edge>
    <edge id=":2627414596_0" function="internal">
        <lane id=":2627414596_0_0" index="0" disallow="tram rail_urban rail rail_electric rail_fast ship" speed="6.52" length="9.04" shape="4027.00,7164.63 4027.35,7167.08 4028.40,7168.84 4030.15,7169.89 4032.60,7170.24"/>
    </edge>
    <edge id=":2627414596_1" function="internal">
        <lane id=":2627414596_1_0" index="0" disallow="tram rail_urban rail rail_electric rail_fast ship" speed="22.22" length="14.55" shape="4027.00,7164.63 4026.78,7179.18"/>
    </edge>
    <edge id=":2627414596_2" function="internal">
        <lane id=":2627414596_2_0" index="0" disallow="tram rail_urban rail rail_electric rail_fast ship" speed="3.65" length="4.67" shape="4027.00,7164.63 4026.20,7165.83 4025.40,7166.23 4024.60,7165.83 4023.80,7164.63"/>
    </edge>
    <edge id=":2627414596_3" function="internal">
        <lane id=":2627414596_3_0" index="0" disallow="tram rail_urban rail rail_electric rail_fast ship" speed="6.53" length="9.10" shape="4018.11,7170.22 4020.60,7169.88 4022.38,7168.83 4023.44,7167.08 4023.80,7164.63"/>
    </edge>
    <edge id=":2627414596_4" function="internal">
        <lane id=":2627414596_4_0" index="0" disallow="tram rail_urban rail rail_electric rail_fast ship" speed="27.78" length="14.49" shape="4018.11,7170.22 4032.60,7170.24"/>
        <lane id=":2627414596_4_1" index="1" disallow="tram rail_urban rail rail_electric rail_fast ship" speed="27.78" length="14.49" shape="4018.10,7173.42 4032.59,7173.44"/>
    </edge>
    <edge id=":2627414596_6" function="internal">
        <lane id=":2627414596_6_0" index="0" disallow="tram rail_urban rail rail_electric rail_fast ship" speed="7.27" length="11.78" shape="4018.10,7173.42 4021.97,7173.79 4024.70,7174.87 4026.30,7176.66 4026.78,7179.18"/>
    </edge>
    <edge id=":2627414596_7" function="internal">
        <lane id=":2627414596_7_0" index="0" disallow="tram rail_urban rail rail_electric rail_fast ship" speed="22.22" length="14.45" shape="4023.58,7179.08 4023.80,7164.63"/>
    </edge>
    <edge id=":2627414596_8" function="internal">
        <lane id=":2627414596_8_0" index="0" disallow="tram rail_urban rail rail_electric rail_fast ship" speed="7.45" length="11.89" shape="4023.58,7179.08 4024.21,7176.61 4025.92,7174.85 4028.71,7173.79 4032.59,7173.44"/>
    </edge>
    <edge id=":2627414596_9" function="internal">
        <lane id=":2627414596_9_0" index="0" disallow="tram rail_urban rail rail_electric rail_fast ship" speed="3.65" length="4.67" shape="4023.58,7179.08 4024.42,7177.90 4025.23,7177.53 4026.01,7177.95 4026.78,7179.18"/>
    </edge>
    <edge id=":3111555272_0" function="internal">
        <lane id=":3111555272_0_0" index="0" disallow="tram rail_urban rail rail_electric rail_fast ship" speed="6.51" length="9.04" shape="5291.04,7164.89 5291.40,7167.34 5292.45,7169.09 5294.20,7170.14 5296.66,7170.48"/>
    </edge>
    <edge id=":3111555272_1" function="internal">
        <lane id=":3111555272_1_0" index="0" disallow="tram rail_urban rail rail_electric rail_fast ship" speed="27.78" length="14.41" shape="5291.04,7164.89 5291.08,7179.29"/>
        <lane id=":3111555272_1_1" index="1" disallow="tram rail_urban rail rail_electric rail_fast ship" speed="27.78" length="14.41" shape="5287.84,7164.90 5287.88,7179.31"/>
    </edge>
    <edge id=":3111555272_3" function="internal">
        <lane id=":3111555272_3_0" index="0" disallow="tram rail_urban rail rail_electric rail_fast ship" speed="27.78" length="14.41" shape="5282.25,7170.51 5296.66,7170.48"/>
        <lane id=":3111555272_3_1" index="1" disallow="tram rail_urban rail rail_electric rail_fast ship" speed="27.78" length="14.41" shape="5282.26,7173.71 5296.66,7173.68"/>
    </edge>
    <edge id=":3111555272_5" function="internal">
        <lane id=":3111555272_5_0" index="0" disallow="tram rail_urban rail rail_electric rail_fast ship" speed="6.52" length="4.29" shape="5282.26,7173.71 5284.71,7174.05 5286.27,7174.99"/>
    </edge>
    <edge id=":3111555272_6" function="internal">
        <lane id=":3111555272_6_0" index="0" disallow="tram rail_urban rail rail_electric rail_fast ship" speed="6.52" length="4.75" shape="5286.27,7174.99 5286.47,7175.10 5287.52,7176.85 5287.88,7179.31"/>
    </edge>
    <edge id=":3111555350_0" function="internal">
        <lane id=":3111555350_0_0" index="0" disallow="tram rail_urban rail rail_electric rail_fast ship" speed="6.52" length="9.08" shape="5224.06,5473.23 5226.54,5472.87 5228.30,5471.82 5229.36,5470.07 5229.71,5467.61"/>
    </edge>
    <edge id=":3111555350_1" function="internal">
        <lane id=":3111555350_1_0" index="0" disallow="tram rail_urban rail rail_electric rail_fast ship" speed="27.78" length="14.46" shape="5224.06,5473.23 5238.52,5473.20"/>
        <lane id=":3111555350_1_1" index="1" disallow="tram rail_urban rail rail_electric rail_fast ship" speed="27.78" length="14.46" shape="5224.06,5476.43 5238.53,5476.40"/>
    </edge>
    <edge id=":3111555350_3" function="internal">
        <lane id=":3111555350_3_0" index="0" disallow="tram rail_urban rail rail_electric rail_fast ship" speed="27.78" length="14.47" shape="5229.58,5482.05 5229.71,5467.61"/>
        <lane id=":3111555350_3_1" index="1" disallow="tram rail_urban rail rail_electric rail_fast ship" speed="27.78" length="14.47" shape="5232.78,5482.12 5232.91,5467.60"/>
    </edge>
    <edge id=":3111555350_5" function="internal">
        <lane id=":3111555350_5_0" index="0" disallow="tram rail_urban rail rail_electric rail_fast ship" speed="6.61" length="4.41" shape="5232.78,5482.12 5233.19,5479.62 5234.17,5478.01"/>
    </edge>
    <edge id=":3111555350_6" function="internal">
        <lane id=":3111555350_6_0" index="0" disallow="tram rail_urban rail rail_electric rail_fast ship" speed="6.61" length="4.78" shape="5234.17,5478.01 5234.28,5477.84 5236.06,5476.76 5238.53,5476.40"/>
    </edge>
    <edge id=":3111558755_0" function="internal">
        <lane id=":3111558755_0_0" index="0" disallow="tram rail_urban rail rail_electric rail_fast ship" speed="6.52" length="9.06" shape="4434.17,6193.77 4431.71,6194.12 4429.95,6195.17 4428.90,6196.92 4428.54,6199.38"/>
    </edge>
    <edge id=":3111558755_1" function="internal">
        <lane id=":3111558755_1_0" index="0" disallow="tram rail_urban rail rail_electric rail_fast ship" speed="22.22" length="14.42" shape="4434.17,6193.77 4419.75,6193.77"/>
    </edge>
    <edge id=":3111558755_2" function="internal">
        <lane id=":3111558755_2_0" index="0" disallow="tram rail_urban rail rail_electric rail_fast ship" speed="8.00" length="14.20" shape="4434.17,6193.77 4430.31,6193.21 4427.56,6191.56 4425.92,6188.81 4425.38,6184.95"/>
    </edge>
    <edge id=":3111558755_3" function="internal">
        <lane id=":3111558755_3_0" index="0" disallow="tram rail_urban rail rail_electric rail_fast ship" speed="3.65" length="4.67" shape="4434.17,6193.77 4432.97,6192.97 4432.57,6192.17 4432.97,6191.37 4434.17,6190.57"/>
    </edge>
    <edge id=":3111558755_4" function="internal">
        <lane id=":3111558755_4_0" index="0" disallow="tram rail_urban rail rail_electric rail_fast ship" speed="6.50" length="9.03" shape="4428.58,6184.96 4428.92,6187.41 4429.97,6189.16 4431.72,6190.22 4434.17,6190.57"/>
    </edge>
    <edge id=":3111558755_5" function="internal">
        <lane id=":3111558755_5_0" index="0" disallow="tram rail_urban rail rail_electric rail_fast ship" speed="27.78" length="14.42" shape="4428.58,6184.96 4428.54,6199.38"/>
    </edge>
    <edge id=":3111558755_6" function="internal">
        <lane id=":3111558755_6_0" index="0" disallow="tram rail_urban rail rail_electric rail_fast ship" speed="8.01" length="5.94" shape="4428.58,6184.96 4428.02,6188.81 4426.96,6190.56"/>
    </edge>
    <edge id=":3111558755_7" function="internal">
        <lane id=":3111558755_7_0" index="0" disallow="tram rail_urban rail rail_electric rail_fast ship" speed="3.65" length="2.34" shape="4428.58,6184.96 4427.78,6186.16 4426.97,6186.56"/>
    </edge>
    <edge id=":3111558755_16" function="internal">
        <lane id=":3111558755_16_0" index="0" disallow="tram rail_urban rail rail_electric rail_fast ship" speed="8.01" length="8.28" shape="4426.96,6190.56 4426.36,6191.56 4423.60,6193.22 4419.75,6193.77"/>
    </edge>
    <edge id=":3111558755_17" function="internal">
        <lane id=":3111558755_17_0" index="0" disallow="tram rail_urban rail rail_electric rail_fast ship" speed="3.65" length="2.34" shape="4426.97,6186.56 4426.18,6186.15 4425.38,6184.95"/>
    </edge>
    <edge id=":3111558755_8" function="internal">
        <lane id=":3111558755_8_0" index="0" disallow="tram rail_urban rail rail_electric rail_fast ship" speed="6.52" length="9.06" shape="4419.75,6190.57 4422.21,6190.21 4423.96,6189.16 4425.02,6187.41 4425.38,6184.95"/>
    </edge>
    <edge id=":3111558755_9" function="internal">
        <lane id=":3111558755_9_0" index="0" disallow="tram rail_urban rail rail_electric rail_fast ship" speed="22.22" length="14.42" shape="4419.75,6190.57 4434.17,6190.57"/>
    </edge>
    <edge id=":3111558755_10" function="internal">
        <lane id=":3111558755_10_0" index="0" disallow="tram rail_urban rail rail_electric rail_fast ship" speed="8.00" length="14.20" shape="4419.75,6190.57 4423.60,6191.12 4426.35,6192.77 4428.00,6195.52 4428.54,6199.38"/>
    </edge>
    <edge id=":3111558755_11" function="internal">
        <lane id=":3111558755_11_0" index="0" disallow="tram rail_urban rail rail_electric rail_fast ship" speed="3.65" length="4.67" shape="4419.75,6190.57 4420.95,6191.37 4421.35,6192.17 4420.95,6192.97 4419.75,6193.77"/>
    </edge>
    <edge id=":3111558755_12" function="internal">
        <lane id=":3111558755_12_0" index="0" disallow="tram rail_urban rail rail_electric rail_fast ship" speed="6.50" length="9.03" shape="4425.34,6199.37 4425.00,6196.92 4423.95,6195.17 4422.20,6194.12 4419.75,6193.77"/>
    </edge>
    <edge id=":3111558755_13" function="internal">
        <lane id=":3111558755_13_0" index="0" disallow="tram rail_urban rail rail_electric rail_fast ship" speed="27.78" length="14.42" shape="4425.34,6199.37 4425.38,6184.95"/>
    </edge>
    <edge id=":3111558755_14" function="internal">
        <lane id=":3111558755_14_0" index="0" disallow="tram rail_urban rail rail_electric rail_fast ship" speed="8.01" length="5.94" shape="4425.34,6199.37 4425.90,6195.52 4426.95,6193.77"/>
    </edge>
    <edge id=":3111558755_15" function="internal">
        <lane id=":3111558755_15_0" index="0" disallow="tram rail_urban rail rail_electric rail_fast ship" speed="3.65" length="2.34" shape="4425.34,6199.37 4426.14,6198.17 4426.94,6197.77"/>
    </edge>
    <edge id=":3111558755_18" function="internal">
        <lane id=":3111558755_18_0" index="0" disallow="tram rail_urban rail rail_electric rail_fast ship" speed="8.01" length="8.28" shape="4426.95,6193.77 4427.56,6192.77 4430.31,6191.12 4434.17,6190.57"/>
    </edge>
    <edge id=":3111558755_19" function="internal">
        <lane id=":3111558755_19_0" index="0" disallow="tram rail_urban rail rail_electric rail_fast ship" speed="3.65" length="2.34" shape="4426.94,6197.77 4427.74,6198.18 4428.54,6199.38"/>
    </edge>
    <edge id=":3264792951_0" function="internal">
        <lane id=":3264792951_0_0" index="0" disallow="tram rail_urban rail rail_electric rail_fast ship" speed="6.49" length="9.03" shape="5288.03,5467.51 5288.36,5469.97 5289.40,5471.72 5291.15,5472.77 5293.60,5473.12"/>
    </edge>
    <edge id=":3264792951_1" function="internal">
        <lane id=":3264792951_1_0" index="0" disallow="tram rail_urban rail rail_electric rail_fast ship" speed="27.78" length="14.45" shape="5288.03,5467.51 5287.94,5481.96"/>
        <lane id=":3264792951_1_1" index="1" disallow="tram rail_urban rail rail_electric rail_fast ship" speed="27.78" length="14.45" shape="5284.83,5467.49 5284.74,5481.94"/>
    </edge>
    <edge id=":3264792951_3" function="internal">
        <lane id=":3264792951_3_0" index="0" disallow="tram rail_urban rail rail_electric rail_fast ship" speed="27.78" length="14.45" shape="5279.15,5473.14 5293.60,5473.12"/>
        <lane id=":3264792951_3_1" index="1" disallow="tram rail_urban rail rail_electric rail_fast ship" speed="27.78" length="14.45" shape="5279.16,5476.34 5293.60,5476.32"/>
    </edge>
    <edge id=":3264792951_5" function="internal">
        <lane id=":3264792951_5_0" index="0" disallow="tram rail_urban rail rail_electric rail_fast ship" speed="6.49" length="4.29" shape="5279.16,5476.34 5281.61,5476.69 5283.16,5477.62"/>
    </edge>
    <edge id=":3264792951_6" function="internal">
        <lane id=":3264792951_6_0" index="0" disallow="tram rail_urban rail rail_electric rail_fast ship" speed="6.49" length="4.74" shape="5283.16,5477.62 5283.36,5477.74 5284.40,5479.49 5284.74,5481.94"/>
    </edge>
    <edge id=":3264792953_0" function="internal">
        <lane id=":3264792953_0_0" index="0" disallow="tram rail_urban rail rail_electric rail_fast ship" speed="6.47" length="9.03" shape="4023.12,6526.50 4022.77,6524.05 4021.71,6522.31 4019.95,6521.28 4017.49,6520.98"/>
    </edge>
    <edge id=":3264792953_1" function="internal">
        <lane id=":3264792953_1_0" index="0" disallow="tram rail_urban rail rail_electric rail_fast ship" speed="22.22" length="14.46" shape="4023.12,6526.50 4023.11,6512.04"/>
    </edge>
    <edge id=":3264792953_2" function="internal">
        <lane id=":3264792953_2_0" index="0" disallow="tram rail_urban rail rail_electric rail_fast ship" speed="8.01" length="5.96" shape="4023.12,6526.50 4023.67,6522.63 4024.72,6520.86"/>
    </edge>
    <edge id=":3264792953_3" function="internal">
        <lane id=":3264792953_3_0" index="0" disallow="tram rail_urban rail rail_electric rail_fast ship" speed="3.65" length="2.34" shape="4023.12,6526.50 4023.92,6525.30 4024.72,6524.90"/>
    </edge>
    <edge id=":3264792953_16" function="internal">
        <lane id=":3264792953_16_0" index="0" disallow="tram rail_urban rail rail_electric rail_fast ship" speed="8.01" length="8.27" shape="4024.72,6520.86 4025.32,6519.86 4028.07,6518.19 4031.92,6517.63"/>
    </edge>
    <edge id=":3264792953_17" function="internal">
        <lane id=":3264792953_17_0" index="0" disallow="tram rail_urban rail rail_electric rail_fast ship" speed="3.65" length="2.34" shape="4024.72,6524.90 4025.52,6525.30 4026.32,6526.50"/>
    </edge>
    <edge id=":3264792953_4" function="internal">
        <lane id=":3264792953_4_0" index="0" disallow="tram rail_urban rail rail_electric rail_fast ship" speed="6.52" length="9.08" shape="4031.92,6520.83 4029.47,6521.19 4027.72,6522.25 4026.67,6524.02 4026.32,6526.50"/>
    </edge>
    <edge id=":3264792953_5" function="internal">
        <lane id=":3264792953_5_0" index="0" disallow="tram rail_urban rail rail_electric rail_fast ship" speed="22.22" length="14.43" shape="4031.92,6520.83 4017.49,6520.98"/>
    </edge>
    <edge id=":3264792953_6" function="internal">
        <lane id=":3264792953_6_0" index="0" disallow="tram rail_urban rail rail_electric rail_fast ship" speed="8.00" length="14.19" shape="4031.92,6520.83 4028.07,6520.29 4025.32,6518.64 4023.66,6515.89 4023.11,6512.04"/>
    </edge>
    <edge id=":3264792953_7" function="internal">
        <lane id=":3264792953_7_0" index="0" disallow="tram rail_urban rail rail_electric rail_fast ship" speed="3.65" length="4.67" shape="4031.92,6520.83 4030.72,6520.03 4030.32,6519.24 4030.72,6518.43 4031.92,6517.63"/>
    </edge>
    <edge id=":3264792953_8" function="internal">
        <lane id=":3264792953_8_0" index="0" disallow="tram rail_urban rail rail_electric rail_fast ship" speed="6.51" length="9.03" shape="4026.31,6512.04 4026.66,6514.49 4027.71,6516.24 4029.47,6517.29 4031.92,6517.63"/>
    </edge>
    <edge id=":3264792953_9" function="internal">