<?xml version="1.0" encoding="UTF-8"?>

<!-- generated on 07/31/22 13:06:14 by Eclipse SUMO polyconvert Version 1.8.0
<configuration xmlns:xsi="http://www.w3.org/2001/XMLSchema-instance" xsi:noNamespaceSchemaLocation="http://sumo.dlr.de/xsd/polyconvertConfiguration.xsd">

    <input>
        <net-file value="ahu.net.xml"/>
        <osm-files value="ahu.osm"/>
        <type-file value="typemap.xml"/>
    </input>

    <output>
        <output-file value="ahu.poly.xml"/>
    </output>

    <processing>
        <poi-layer-offset value="5"/>
    </processing>

</configuration>
-->

<additional xmlns:xsi="http://www.w3.org/2001/XMLSchema-instance" xsi:noNamespaceSchemaLocation="http://sumo.dlr.de/xsd/additional_file.xsd">
    <location netOffset="-524494.47,-3506476.81" convBoundary="-6041.51,-1172.84,12925.53,21306.52" origBoundary="117.194907,31.682429,117.394810,31.885474" projParameter="+proj=utm +zone=50 +ellps=WGS84 +datum=WGS84 +units=m +no_defs"/>

    <poly id="1069831681" type="building" color="255,230,230" fill="1" layer="2.00" shape="3432.671961,6633.824486 3510.523383,6633.536859 3511.129452,6793.956716 3433.250829,6794.244252 3432.671961,6633.824486"/>
    <poly id="1069831691" type="unknown" color="51,128,255" fill="0" layer="-1.00" shape="2666.575573,6816.126347 3098.681783,6817.717073 3211.012719,6818.140234 3316.278588,6818.534475 3521.052216,6819.299450"/>
    <poly id="195695179" type="unknown" color="51,128,255" fill="0" layer="-1.00" shape="4743.995620,10546.943920 4829.682208,10241.766971 4945.257330,9700.364724 4962.160939,9616.518059 5077.819469,9030.992400 5158.978334,8618.822732 5185.362145,8483.008720 5194.162992,8432.335812 5219.619985,8253.734977 5237.360909,8071.576180 5249.835150,7844.201697 5248.747639,7699.286349 5247.501266,7533.920601 5247.000158,7428.610120 5247.127612,6773.834927 5247.296357,5923.916053"/>
    <poly id="298620578" type="unknown" color="51,128,255" fill="0" layer="-1.00" shape="5228.163568,7428.755301 5229.002273,7262.686259 5229.353281,7193.501001 5229.433612,7172.208888 5229.557566,7135.787256 5230.378249,6854.422611 5230.422007,6842.529621 5231.373412,6515.798741 5231.989388,6305.404449 5231.908466,6192.192491 5231.622544,5837.914682 5231.461238,5644.111049 5231.442593,5621.000927"/>
    <poly id="306288153" type="unknown" color="51,128,255" fill="0" layer="-1.00" shape="5268.746635,4926.897894 5268.961500,5607.531262 5269.039436,5862.806346 5270.078754,6759.514146 5270.437796,7074.732668 5269.517736,7429.473160 5268.781308,7533.649504 5268.833046,7591.164511"/>
    <poly id="306288564" type="unknown" color="51,128,255" fill="0" layer="-1.00" shape="5287.072992,4927.892914 5287.099863,5023.591867 5287.351118,5143.277166 5287.548696,5163.428374"/>
    <poly id="306294367" type="unknown" color="51,128,255" fill="0" layer="-1.00" shape="6995.962146,9362.459026 6993.622452,9059.203562 6991.342108,8764.327942 6991.261573,8753.498594 6989.637928,8544.227082 6986.896243,8189.441109 6983.266044,7719.267960 6979.017802,7169.044520 6976.967488,6903.775786"/>
    <poly id="319977336" type="unknown" color="51,128,255" fill="0" layer="-1.00" shape="2199.874420,5840.750676 2351.610119,5840.468391 2598.602144,5840.028017 2611.805230,5840.151379 3100.508450,5844.839016 3114.848204,5844.932812 3499.824128,5843.975427 3597.580104,5844.152550 3602.003100,5844.242186 3620.548370,5844.292722 3766.797381,5845.058194 4023.900476,5846.419842 4280.931474,5846.468707 4427.930864,5846.491938 4640.556223,5844.186378 4841.370071,5842.073277 5102.908605,5839.284699 5231.622544,5837.914682 5286.911652,5840.091463 5438.282714,5838.401533 5639.286852,5836.160425 5729.772778,5835.017525 5744.425931,5834.838795 5962.233903,5832.287488 6149.229241,5830.247720 6336.878361,5828.168960 6485.274827,5826.829104 6647.776137,5825.001930 6648.903322,5824.983165 6985.577523,5820.607352 7008.641132,5820.578016 7265.722396,5820.213712 7592.705030,5819.762692 8011.838210,5819.201944 8038.197999,5819.174215 8464.084787,5818.619896 8862.015938,5845.957674"/>
    <poly id="319977944" type="unknown" color="51,128,255" fill="0" layer="-1.00" shape="6982.625220,6192.067238 6335.837124,6192.319062 6148.078254,6192.125228 5746.257592,6192.147261 5729.919554,6192.154785 5437.312783,6192.176998 5287.618682,6192.198052 5231.908466,6192.192491 5104.254231,6192.180004 4840.828873,6192.169929 4668.072337,6192.167650 4640.046764,6192.166024 4426.961482,6192.164768 4024.336691,6192.174049 3620.272433,6192.195123 3597.825466,6192.200455 3348.986291,6192.223894 3114.136249,6192.257527 3099.597816,6192.262952 2976.925735,6192.279044 2611.410008,6192.331566 2598.074426,6192.340859 2286.336730,6192.402231 2201.502509,6192.415038"/>
    <poly id="319978052" type="unknown" color="51,128,255" fill="0" layer="-1.00" shape="2599.999170,6519.577338 2615.325026,6522.488363 3098.716364,6525.211489 3113.462450,6525.295295 3435.114041,6525.950908 3598.061326,6526.293798 3615.837017,6526.785600 3619.994384,6526.929942 3766.679067,6524.160912 3824.028891,6523.065765 4024.720233,6519.240712 4426.045453,6518.784572 4680.789594,6517.839600 4840.339781,6517.250371 5105.672826,6516.268437 5231.373412,6515.798741 5288.229399,6515.275594 5433.696543,6514.632711 5730.096038,6513.247193 5741.423539,6513.191730 5748.081771,6513.155836 5948.794405,6512.216867 6148.086970,6511.111325 6203.000847,6510.820214 6334.924333,6510.304908 6484.719625,6509.811714 6980.120209,6506.978116 7002.464792,6506.192876 7259.094170,6508.620384 7588.856781,6511.736012"/>
    <poly id="319989212" type="unknown" color="51,128,255" fill="0" layer="-1.00" shape="2136.137707,5126.226593 2144.246239,5137.120858 2151.350712,5140.674977 2257.798649,5144.741167 2291.311535,5144.695119 2447.632432,5144.470393 2599.416129,5144.258287 2613.131603,5144.382988 2921.369351,5147.358887 3018.923556,5147.507758 3102.345254,5147.630821 3116.259907,5147.656969 3238.556486,5147.486228 3596.618113,5147.014083 3619.182773,5146.366178 4022.098550,5144.878400 4429.890321,5144.295657 4641.558324,5143.993484 4842.418459,5143.720333 5230.214631,5143.189969"/>
    <poly id="352046317" type="residential" color="235,235,227" fill="1" layer="-11.00" shape="3766.679067,6524.160912 3619.994384,6526.929942 3621.490402,6447.184918 3620.548370,5844.292722 4427.930864,5846.491938 4426.045453,6518.784572 3766.679067,6524.160912"/>
    <poly id="352057870" type="unknown" color="51,128,255" fill="0" layer="-1.00" shape="4024.854672,7189.644024 4025.405875,7171.833598 4025.185177,6967.466656 4025.076600,6862.922326 4025.064567,6850.153558 4024.832076,6629.471075 4024.720233,6519.240712 4024.336691,6192.174049 4023.900476,5846.419842 4022.678313,5630.711633 4021.948034,5500.861125 4021.958185,5476.631638 4022.028819,5327.730066 4022.114885,5162.956359 4022.098550,5144.878400 4020.212914,4819.526235 4020.274162,4804.219484 4021.598080,4455.411659 4021.687911,4433.188620"/>
    <poly id="352057882" type="unknown" color="51,128,255" fill="0" layer="-1.00" shape="5230.279391,5163.451631 5016.159462,5163.346770 4842.400748,5163.272377 4700.951852,5163.214709 4641.560940,5163.190895 4594.730221,5163.169580 4429.875474,5163.105077 4022.114885,5162.956359 3619.261026,5162.837127 3596.658544,5163.473845 3236.141907,5161.268155 3116.234879,5160.547518 3102.310920,5160.465926 2720.512399,5157.423306 2613.128012,5156.564217 2599.384254,5156.395106 2413.285958,5155.420345 2360.981054,5155.139962 2258.786590,5154.608424 2153.598573,5157.871951 2146.736150,5159.627656 2141.380146,5164.923026 2136.137501,5174.009394"/>
    <poly id="352057886" type="unknown" color="51,128,255" fill="0" layer="-1.00" shape="3619.817298,6751.656828 3619.727963,6853.884007 3619.718565,6867.750025 3619.468481,7171.306027 3619.454886,7190.181995"/>
    <poly id="354080745" type="unknown" color="51,128,255" fill="0" layer="-1.00" shape="8967.951525,5503.006847 8941.145503,5503.097268 8896.257289,5503.240049 8470.619771,5504.619856 8038.657381,5508.358165 8011.729219,5508.151347 7591.571213,5499.154654 7267.205472,5498.527650 7142.049543,5499.439866 7011.532367,5500.403728 6988.127529,5500.276849 6916.926488,5500.370136 6914.586901,5500.374096 6758.905069,5500.588437 6743.058455,5500.595856 6337.819704,5500.573700 6148.607924,5500.575160 5745.907852,5500.594882 5732.846017,5500.600933 5522.976023,5500.619857 5286.253116,5500.643078"/>
    <poly id="354080746" type="unknown" color="51,128,255" fill="0" layer="-1.00" shape="7013.235562,5162.946033 6990.644600,5162.810558 6759.539518,5162.994545 6744.469104,5163.004320 6534.156133,5163.056825 6465.027477,5163.070818"/>
    <poly id="367395998" type="unknown" color="51,128,255" fill="0" layer="-1.00" shape="4424.163231,7189.825364 4424.212170,7172.379315 4424.793514,6965.132700 4424.867975,6938.586783 4425.097108,6856.898518 4425.130373,6845.038757 4426.045453,6518.784572 4426.347489,6411.093568 4426.961482,6192.164768 4427.308128,6068.557368 4427.930864,5846.491938 4428.245435,5734.312069 4428.573175,5617.432657 4428.690283,5575.668638 4428.900284,5500.774942 4428.941329,5476.002418 4429.875474,5163.105077 4429.890321,5144.295657 4430.792579,4998.167417 4430.561975,4820.258363 4430.597279,4804.286499 4432.247003,4665.220896 4431.828226,4456.420462 4431.899998,4430.816766"/>
    <poly id="367458761" type="commercial" color="209,209,204" fill="1" layer="-11.00" shape="3298.262486,7170.889514 3298.113997,7008.165385 3297.982766,6867.132658 3598.298278,6866.882508 3598.510606,7171.271062 3311.341053,7170.902614 3298.262486,7170.889514"/>
    <poly id="367458762" type="commercial" color="209,209,204" fill="1" layer="-11.00" shape="2612.893165,7170.051057 2615.325026,6522.488363 3598.061326,6526.293798 3598.298278,6866.882508 3297.982766,6867.132658 3298.113997,7008.165385 3298.262486,7170.889514 3097.292130,7170.637853 2612.893165,7170.051057"/>
    <poly id="367458763" type="unknown" color="51,128,255" fill="0" layer="-1.00" shape="8468.117919,6488.882988 8037.211515,6486.184455 8012.080815,6487.435283 7945.909313,6504.584457 7886.776441,6548.424283 7742.927150,6670.728965 7583.859081,6809.104429 7521.151686,6846.162883 7428.576334,6867.223637 7297.178026,6870.818960 7254.361933,6870.498597 6999.198446,6868.596531 6976.396171,6867.551512 6484.432000,6860.874271 6333.916613,6860.013013 6151.761785,6858.416987 6035.300384,6858.459415 5941.958357,6858.039350 5750.037410,6857.064468 5730.291262,6856.973311 5630.888461,6856.394205 5288.897149,6854.613657 5230.378249,6854.422611 4839.831810,6855.587350 4425.097108,6856.898518 4025.076600,6862.922326 3619.718565,6867.750025"/>
    <poly id="367458764" type="unknown" color="51,128,255" fill="0" layer="-1.00" shape="8467.997636,6470.217119 8037.230409,6474.191614 8012.075424,6474.123369 7960.727012,6481.942113 7907.021546,6504.462188 7823.677451,6573.586540 7584.242342,6786.372314 7526.596137,6822.160738 7456.815179,6840.631896 7350.866615,6849.636847 7255.306732,6849.707907 6999.369244,6849.887252 6977.399024,6849.277049 6484.443419,6847.617842 6333.955819,6846.900761 6151.932096,6845.726319 6046.807066,6845.746901 5942.204175,6845.348904 5749.960308,6844.605836 5730.280333,6844.548126 5630.990639,6844.113443 5432.704686,6843.303219 5288.874713,6842.709392 5230.422007,6842.529621 5104.754071,6842.910711 4839.856114,6843.716476 4683.379743,6844.214604 4575.990504,6844.554126 4526.969707,6844.715293 4425.130373,6845.038757 4025.064567,6850.153558 3619.727963,6853.884007"/>
    <poly id="367458765" type="commercial" color="209,209,204" fill="1" layer="-11.00" shape="3619.468481,7171.306027 3619.718565,6867.750025 4025.076600,6862.922326 4025.185177,6967.466656 4025.405875,7171.833598 3619.468481,7171.306027"/>
    <poly id="367549900" type="commercial" color="209,209,204" fill="1" layer="-11.00" shape="3620.724710,5477.281499 3620.043426,5331.060247 4022.028819,5327.730066 4021.958185,5476.631638 3620.724710,5477.281499"/>
    <poly id="367549901" type="residential" color="235,235,227" fill="1" layer="-11.00" shape="3620.043426,5331.060247 4022.028819,5327.730066 4021.958185,5476.631638 4428.941329,5476.002418 4429.875474,5163.105077 4022.114885,5162.956359 3619.261026,5162.837127 3620.043426,5331.060247"/>
    <poly id="367833677" type="unknown" color="51,128,255" fill="0" layer="-1.00" shape="5230.214631,5143.189969 5287.351118,5143.277166 5354.660775,5143.383025 5513.282764,5143.621514 5640.371708,5143.814619 5733.853152,5143.966182"/>
    <poly id="367833681" type="unknown" color="51,128,255" fill="0" layer="-1.00" shape="7688.777301,7194.079989 7577.408750,7192.934866 7013.276811,7189.277732 7000.587353,7188.984024 6974.695956,7188.749780 6963.407057,7188.803998 6685.646429,7189.766854 6259.966170,7191.248075 6235.333409,7191.329795 5751.940317,7193.025890 5730.470695,7193.107013 5289.543619,7194.694449 5229.353281,7193.501001 4839.330033,7191.707711 4424.163231,7189.825364 4024.854672,7189.644024 3619.454886,7190.181995 3598.526578,7189.737003 2612.997215,7184.504817 2598.867644,7184.423337 2136.015780,7190.732226 2122.038947,7190.186269 2110.647130,7189.791092 2102.427546,7189.526036 2089.719443,7189.094235 2075.734106,7188.171463"/>
    <poly id="367833686" type="unknown" color="51,128,255" fill="0" layer="-1.00" shape="2075.735719,7169.173566 2089.695185,7169.120882 2102.413040,7169.452953 2111.212017,7169.065551 2122.053263,7169.969168 2136.184283,7169.495800 2222.582244,7169.597423 2409.272780,7169.207306 2598.668696,7170.035832 2612.893165,7170.051057 3097.292130,7170.637853 3298.262486,7170.889514 3311.341053,7170.902614 3598.510606,7171.271062 3619.468481,7171.306027 4025.405875,7171.833598 4424.212170,7172.379315 4678.832321,7172.730937 4839.354985,7172.953679 5229.433612,7172.208888 5289.457388,7172.093943 5730.458951,7171.271508 5738.442539,7171.261666 5751.824315,7171.234414 5935.513488,7170.899347 6119.988779,7170.558802 6140.681761,7170.520518 6235.528505,7170.359445 6259.706640,7170.309621 6343.046806,7170.159554 6359.288668,7170.130563 6484.175790,7169.917636 6683.728208,7169.565992 6963.902897,7169.075974 6979.017802,7169.044520 7000.467488,7169.320624 7013.062131,7169.658377 7577.700336,7175.312186 7691.316213,7175.610856"/>
    <poly id="367833690" type="unknown" color="51,128,255" fill="0" layer="-1.00" shape="4640.046764,6192.166024 4640.243499,6065.532258 4640.556223,5844.186378 4640.880137,5618.861457 4640.883391,5611.002940 4641.043318,5500.729095"/>
    <poly id="367962989" type="unknown" color="51,128,255" fill="0" layer="-1.00" shape="6259.706640,7170.309621 6259.966170,7191.248075 6260.024440,7292.345437"/>
    <poly id="375683028" type="residential" color="235,235,227" fill="1" layer="-11.00" shape="4428.573175,5617.432657 4640.880137,5618.861457 4640.556223,5844.186378 4427.930864,5846.491938 4428.245435,5734.312069 4428.573175,5617.432657"/>
    <poly id="375683029" type="residential" color="235,235,227" fill="1" layer="-11.00" shape="4427.308128,6068.557368 4640.243499,6065.532258 4640.556223,5844.186378 4841.370071,5842.073277 4840.828873,6192.169929 4668.072337,6192.167650 4640.046764,6192.166024 4426.961482,6192.164768 4427.308128,6068.557368"/>
    <poly id="375683030" type="amenity" color="237,199,199" fill="1" layer="2.00" shape="4427.308128,6068.557368 4640.243499,6065.532258 4640.556223,5844.186378 4427.930864,5846.491938 4427.308128,6068.557368"/>
    <poly id="474873038" type="unknown" color="51,128,255" fill="0" layer="-1.00" shape="7013.220779,5146.076173 7200.323834,5147.092663 7210.307740,5147.056837 7268.335580,5146.869561 7590.330624,5145.804337 8011.288399,5149.050741 8039.307257,5149.116894 8461.353755,5149.580848 8897.658533,5149.354496"/>
    <poly id="474873039" type="unknown" color="51,128,255" fill="0" layer="-1.00" shape="8897.606620,5162.466701 8462.839016,5162.032920 8039.173282,5161.563794 8011.608564,5161.676415 7805.363841,5160.119732 7590.376369,5158.506726 7419.209535,5162.420483 7268.239727,5162.619603 7198.116195,5162.703209 7013.235562,5162.946033"/>
    <poly id="510328806" type="unknown" color="51,128,255" fill="0" layer="-1.00" shape="6235.126160,7292.625874 6235.333409,7191.329795 6235.528505,7170.359445"/>
    <poly id="510789113" type="boundary.administrative" color="128,0,51" fill="0" layer="-12.00" shape="2106.845214,7180.448589 2207.258323,7180.896609 3611.438322,7181.459217"/>
    <poly id="510789115" type="boundary.administrative" color="128,0,51" fill="0" layer="-12.00" shape="3611.438322,7181.459217 3750.226587,7181.517098 6245.831062,7180.310342 6908.542744,7180.201796 7007.319202,7180.214972"/>
    <poly id="510789118" type="boundary.administrative" color="128,0,51" fill="0" layer="-12.00" shape="3606.866679,3693.129795 3611.438322,7181.459217"/>
    <poly id="510789120" type="boundary.administrative" color="128,0,51" fill="0" layer="-12.00" shape="7021.968940,3695.898800 7013.592782,5687.917805 7007.319202,7180.214972"/>
    <poly id="510789121" type="boundary.administrative" color="128,0,51" fill="0" layer="-12.00" shape="7007.319202,7180.214972 8473.691751,7180.444072 8922.242315,7179.859901"/>
    <poly id="521996753" type="unknown" color="51,128,255" fill="0" layer="-1.00" shape="5230.214631,5143.189969 5229.332209,4926.717763"/>
    <poly id="522155485" type="unknown" color="51,128,255" fill="0" layer="-1.00" shape="5730.470695,7193.107013 5730.458951,7171.271508 5730.291262,6856.973311 5730.280333,6844.548126 5730.096038,6513.247193 5729.977641,6301.598182 5729.919554,6192.154785 5729.772778,5835.017525 5731.692183,5626.068094 5732.846017,5500.600933 5732.923741,5474.077223 5733.796578,5163.274281 5733.853152,5143.966182"/>
    <poly id="522155488" type="unknown" color="51,128,255" fill="0" layer="-1.00" shape="6027.531597,5163.197004 6027.587148,5144.420928 6028.078237,4978.428911"/>
    <poly id="522155492" type="unknown" color="51,128,255" fill="0" layer="-1.00" shape="6443.279113,5163.083162 6443.304644,5145.093952"/>
    <poly id="522155494" type="unknown" color="51,128,255" fill="0" layer="-1.00" shape="6743.058455,5500.595856 6743.170616,5472.941664 6744.058736,5289.138730 6744.469104,5163.004320 6744.540776,5145.591611 6746.069861,4806.404511"/>
    <poly id="522155505" type="unknown" color="51,128,255" fill="0" layer="-1.00" shape="6337.819704,5500.573700 6336.878361,5828.168960 6335.837124,6192.319062 6334.924333,6510.304908 6333.955819,6846.900761 6333.916613,6860.013013 6333.616901,6963.414737 6330.321824,6975.852216 6322.239478,6989.838229 6309.447836,7007.811501 6292.292837,7028.110482 6273.122232,7051.063635 6262.076774,7074.229489 6258.452055,7111.494169 6259.706640,7170.309621"/>
    <poly id="522155507" type="unknown" color="51,128,255" fill="0" layer="-1.00" shape="6235.528505,7170.359445 6234.105020,7123.680475 6230.155183,7101.655878 6222.080774,7081.270509 6213.758087,7061.560533 6204.771414,7042.192190 6185.718616,7022.450293 6173.684985,7011.740599 6165.343294,6998.370655 6159.352211,6984.353751 6155.371447,6972.659383 6152.164342,6958.761601 6151.761785,6858.416987 6151.932096,6845.726319 6148.086970,6511.111325 6148.078254,6192.125228 6149.229241,5830.247720 6148.607924,5500.575160"/>
    <poly id="522155508" type="tourism" color="207,245,201" fill="1" layer="-10.00" shape="5746.033002,5474.060227 5747.360865,5163.269699 6027.531597,5163.197004 6049.289390,5163.194895 6443.279113,5163.083162 6534.156133,5163.056825 6533.674628,5216.070022 6575.345861,5249.691212 6573.877818,5472.940249 5746.033002,5474.060227"/>
    <poly id="522155509" type="commercial" color="209,209,204" fill="1" layer="-11.00" shape="5513.282764,5143.621514 5512.239993,5029.919217 5639.533172,5028.771733 5640.371708,5143.814619 5513.282764,5143.621514"/>
    <poly id="522155510" type="amenity" color="237,199,199" fill="1" layer="2.00" shape="5639.533172,5028.771733 5639.417952,5013.087592 5734.219604,5012.433873 5733.853152,5143.966182 5640.371708,5143.814619 5639.533172,5028.771733"/>
    <poly id="522155519" type="unknown" color="51,128,255" fill="0" layer="-1.00" shape="5733.853152,5143.966182 5747.474234,5143.983935 6027.587148,5144.420928 6049.278543,5144.462958"/>
    <poly id="522155520" type="unknown" color="51,128,255" fill="0" layer="-1.00" shape="5733.853152,5143.966182 5734.219604,5012.433873 5734.315148,4979.825138 5734.347958,4965.393918"/>
    <poly id="522155524" type="unknown" color="51,128,255" fill="0" layer="-1.00" shape="6049.212731,4965.124197 6049.220979,4978.336307 6049.278543,5144.462958"/>
    <poly id="522155526" type="unknown" color="51,128,255" fill="0" layer="-1.00" shape="6049.278543,5144.462958 6443.304644,5145.093952"/>
    <poly id="522155527" type="unknown" color="51,128,255" fill="0" layer="-1.00" shape="6049.278543,5144.462958 6049.289390,5163.194895"/>
    <poly id="522155529" type="unknown" color="51,128,255" fill="0" layer="-1.00" shape="6443.304644,5145.093952 6443.573460,4935.419296 6443.598022,4920.910455 6443.757420,4804.573612 6443.774702,4792.492140"/>
    <poly id="522155532" type="unknown" color="51,128,255" fill="0" layer="-1.00" shape="6443.304644,5145.093952 6465.024496,5145.125858 6744.540776,5145.591611 6759.573225,5145.614974 6990.762492,5145.907851 7013.220779,5146.076173"/>
    <poly id="522155535" type="unknown" color="51,128,255" fill="0" layer="-1.00" shape="6760.240320,4794.077716 6760.212188,4806.491678 6759.573225,5145.614974 6759.539518,5162.994545 6758.960475,5472.922989 6758.905069,5500.588437"/>
    <poly id="522163047" type="unknown" color="51,128,255" fill="0" layer="-1.00" shape="6464.918811,4804.703591 6464.949222,4920.841494 6464.953279,4935.272834 6465.024496,5145.125858 6465.027477,5163.070818"/>
    <poly id="522163050" type="unknown" color="51,128,255" fill="0" layer="-1.00" shape="6465.027477,5163.070818 6443.279113,5163.083162 6049.289390,5163.194895 6027.531597,5163.197004"/>
    <poly id="522163053" type="unknown" color="51,128,255" fill="0" layer="-1.00" shape="6027.531597,5163.197004 5747.360865,5163.269699"/>
    <poly id="522163060" type="unknown" color="51,128,255" fill="0" layer="-1.00" shape="5748.211403,4979.755024 5747.474234,5143.983935 5747.360865,5163.269699"/>
    <poly id="522163064" type="unknown" color="51,128,255" fill="0" layer="-1.00" shape="5747.360865,5163.269699 5733.796578,5163.274281 5287.548696,5163.428374"/>
    <poly id="522163067" type="unknown" color="51,128,255" fill="0" layer="-1.00" shape="5747.360865,5163.269699 5746.033002,5474.060227 5745.907852,5500.594882 5744.425931,5834.838795 5746.257592,6192.147261 5748.081771,6513.155836 5749.960308,6844.605836 5750.037410,6857.064468 5751.824315,7171.234414 5751.940317,7193.025890"/>
    <poly id="522163070" type="unknown" color="51,128,255" fill="0" layer="-1.00" shape="5287.548696,5163.428374 5287.763281,5289.243021 5286.375291,5474.729123 5286.253116,5500.643078"/>
    <poly id="522163073" type="unknown" color="51,128,255" fill="0" layer="-1.00" shape="5287.548696,5163.428374 5230.279391,5163.451631"/>
    <poly id="526571558" type="unknown" color="51,128,255" fill="0" layer="-1.00" shape="5247.296357,5923.916053 5240.373444,5907.214716 5237.963373,5862.705630 5237.973649,5750.713243 5237.983190,5678.401470"/>
    <poly id="526571559" type="unknown" color="51,128,255" fill="0" layer="-1.00" shape="5237.983190,5678.401470 5238.073544,5647.056274 5231.442593,5621.000927"/>
    <poly id="526571560" type="unknown" color="51,128,255" fill="0" layer="-1.00" shape="5286.453196,5605.220865 5275.695280,5640.591997 5275.071458,5679.517087"/>
    <poly id="526571561" type="unknown" color="51,128,255" fill="0" layer="-1.00" shape="5275.071458,5679.517087 5274.572339,5852.447718 5269.039436,5862.806346"/>
    <poly id="526571562" type="unknown" color="51,128,255" fill="0" layer="-1.00" shape="5229.557566,7135.787256 5238.426243,7111.295046 5238.409530,7094.103731"/>
    <poly id="526571563" type="unknown" color="51,128,255" fill="0" layer="-1.00" shape="5238.409530,7094.103731 5238.220646,6827.921248 5240.877637,6789.999517 5247.127612,6773.834927"/>
    <poly id="526571564" type="unknown" color="51,128,255" fill="0" layer="-1.00" shape="5270.078754,6759.514146 5275.927887,6790.355592 5278.397454,7053.518729"/>
    <poly id="526571565" type="unknown" color="51,128,255" fill="0" layer="-1.00" shape="5278.397454,7053.518729 5278.650816,7080.564393 5283.161515,7099.287195 5289.343426,7106.642653"/>
    <poly id="526571566" type="unknown" color="51,128,255" fill="0" layer="-1.00" shape="5289.603938,7252.486554 5278.584745,7277.238530"/>
    <poly id="526571610" type="unknown" color="51,128,255" fill="0" layer="-1.00" shape="5247.296357,5923.916053 5247.448164,5158.413577 5246.779107,4927.200316"/>
    <poly id="526571613" type="unknown" color="51,128,255" fill="0" layer="-1.00" shape="5231.442593,5621.000927 5230.813817,5500.649429 5231.333448,5474.814208"/>
    <poly id="526571615" type="unknown" color="51,128,255" fill="0" layer="-1.00" shape="5289.603938,7252.486554 5289.768733,7428.168322"/>
    <poly id="549421606" type="unknown" color="51,128,255" fill="0" layer="-1.00" shape="5286.253116,5500.643078 5230.813817,5500.649429 5016.786885,5503.592839 4841.886341,5500.699803 4641.043318,5500.729095 4428.900284,5500.774942 4282.672505,5500.809319 4021.948034,5500.861125 3620.832790,5500.181226 3597.330827,5500.959575"/>
    <poly id="549421607" type="unknown" color="51,128,255" fill="0" layer="-1.00" shape="5286.253116,5500.643078 5286.453196,5605.220865 5286.911652,5840.091463 5287.618682,6192.198052 5287.830089,6302.650482 5288.229399,6515.275594 5288.874713,6842.709392 5288.897149,6854.613657 5289.343426,7106.642653 5289.457388,7172.093943 5289.543619,7194.694449 5289.603938,7252.486554"/>
    <poly id="549421608" type="unknown" color="51,128,255" fill="0" layer="-1.00" shape="3597.330827,5500.959575 3115.541214,5501.110742"/>
    <poly id="549421609" type="unknown" color="51,128,255" fill="0" layer="-1.00" shape="3597.330827,5500.959575 3597.319468,5477.306404 3596.658544,5163.473845 3596.618113,5147.014083 3595.910339,4812.055564 3595.879220,4795.651255 3595.388542,4565.303627 3595.151617,4453.987072"/>
    <poly id="549421631" type="unknown" color="51,128,255" fill="0" layer="-1.00" shape="3101.470625,5478.118249 3115.583860,5478.100596 3597.319468,5477.306404 3620.724710,5477.281499"/>
    <poly id="549421634" type="unknown" color="51,128,255" fill="0" layer="-1.00" shape="3616.049236,4432.962346 3615.971140,4454.675551 3617.578322,4800.066341 3617.648112,4816.171489 3619.182773,5146.366178 3619.261026,5162.837127 3620.043426,5331.060247 3620.724710,5477.281499"/>
    <poly id="549421636" type="unknown" color="51,128,255" fill="0" layer="-1.00" shape="3620.724710,5477.281499 4021.958185,5476.631638 4428.941329,5476.002418 4591.509196,5475.761241 4698.912189,5475.599119 4841.901507,5475.384084 5108.273162,5474.992346 5231.333448,5474.814208"/>
    <poly id="549421637" type="unknown" color="51,128,255" fill="0" layer="-1.00" shape="3620.724710,5477.281499 3620.832790,5500.181226 3620.548370,5844.292722 3620.272433,6192.195123 3621.490402,6447.184918 3619.994384,6526.929942 3619.817298,6751.656828"/>
    <poly id="549421638" type="unknown" color="51,128,255" fill="0" layer="-1.00" shape="5231.333448,5474.814208 5230.279391,5163.451631 5230.214631,5143.189969"/>
    <poly id="549421639" type="unknown" color="51,128,255" fill="0" layer="-1.00" shape="5231.333448,5474.814208 5286.375291,5474.729123 5732.923741,5474.077223 5746.033002,5474.060227 6573.877818,5472.940249 6743.170616,5472.941664 6758.960475,5472.922989 6988.344876,5472.512133 7011.788173,5472.472870 7267.336480,5471.361202 7591.472587,5469.959115 8011.712378,5477.426457 8038.707168,5477.555896 8470.376993,5485.743025 8896.337514,5484.308825 8941.083768,5484.154499 8968.723366,5484.066782"/>
    <poly id="550168135" type="unknown" color="51,128,255" fill="0" layer="-1.00" shape="6976.967488,6903.775786 6976.396171,6867.551512 6977.399024,6849.277049 6980.120209,6506.978116 6982.625220,6192.067238 6985.577523,5820.607352 6988.127529,5500.276849 6988.344876,5472.512133 6989.727207,5298.907943 6990.644600,5162.810558 6990.762492,5145.907851 6993.053888,4807.897926 6993.139914,4795.229207 6995.402041,4460.599970 6995.189224,4437.212150 6994.021876,3711.386462 6993.677405,3672.137125 6995.656366,3616.579298 6994.360749,3466.764637"/>
    <poly id="550168137" type="unknown" color="51,128,255" fill="0" layer="-1.00" shape="6964.744969,7374.154922 6963.407057,7188.803998 6963.902897,7169.075974 6966.069247,6930.887255 6976.967488,6903.775786"/>
    <poly id="550168141" type="unknown" color="51,128,255" fill="0" layer="-1.00" shape="6998.882530,6903.809452 7000.467488,7169.320624 7000.587353,7188.984024 7003.797710,7725.183046 7006.404526,8161.192119 7008.658707,8538.942714 7013.592615,9362.368844"/>
    <poly id="550168142" type="unknown" color="51,128,255" fill="0" layer="-1.00" shape="6998.882530,6903.809452 7010.420401,6930.856426 7013.062131,7169.658377 7013.276811,7189.277732 7015.733884,7410.965490"/>