<?xml version="1.0" encoding="UTF-8"?>

<!-- generated on 07/31/22 13:06:30 by Eclipse SUMO duarouter Version 1.8.0
<configuration xmlns:xsi="http://www.w3.org/2001/XMLSchema-instance" xsi:noNamespaceSchemaLocation="http://sumo.dlr.de/xsd/duarouterConfiguration.xsd">

    <input>
        <net-file value="ahu.net.xml"/>
        <route-files value="trips.trips.xml"/>
    </input>

    <output>
        <output-file value="ahu2.rou.xml"/>
        <alternatives-output value="ahu2.rou.alt.xml"/>
    </output>

    <time>
        <begin value="0"/>
        <end value="200"/>
    </time>

    <report>
        <no-warnings value="true"/>
        <ignore-errors value="true"/>
        <no-step-log value="true"/>
    </report>

</configuration>
-->

<routes xmlns:xsi="http://www.w3.org/2001/XMLSchema-instance" xsi:noNamespaceSchemaLocation="http://sumo.dlr.de/xsd/routes_file.xsd">
    <vehicle id="0" depart="0.00">
        <route edges="367833686#0 89905567#1 89905567#2 89905567#3 319977336#1 319977336#2 -319977336#2"/>
    </vehicle>
    <vehicle id="1" depart="1.00">
        <route edges="195695179#0 195695179#1 526571558 526571559 526571613#0 526571613#1 549421639#0 549421639#1 549421639#2 522163067#1 522163067#2 319977336#10 319977336#11 319977336#12 -975521587#0"/>
    </vehicle>
    <vehicle id="2" depart="2.00">
        <route edges="522155505#5 367962989#0 367833681#4 510328806#1 522155507#0"/>
    </vehicle>
    <vehicle id="3" depart="3.00">
        <route edges="549421639#3 549421639#4 549421639#5 549421639#6 651100983#3 651100983#4 651100983#5 651100983#6 -319978052#12 -319978052#11"/>
    </vehicle>
    <vehicle id="4" depart="4.00">
        <route edges="319978052#12 -319978052#12 -319978052#11 -319978052#10 522155507#3 522155507#4 -319977336#10 -319977336#9 -319977336#8 -319977336#7 -319977336#6 -319977336#5 -319977336#4 -319977336#3"/>
    </vehicle>
    <vehicle id="5" depart="5.00">
        <route edges="-803640125#1 651100983#6 651100983#7 367458764#1 367458764#2"/>
    </vehicle>
    <vehicle id="6" depart="6.00">
        <route edges="-319977336#15 -319977336#14 550168135#5 354080745#2 354080745#3 354080745#4 354080745#5 354080745#6 354080745#7 354080745#8 354080745#9 549421606#0 549421606#1 -571836453#3 -571836453#2 -571836453#1 -571836453#0"/>
    </vehicle>
    <vehicle id="7" depart="7.00">
        <route edges="367833686#0 367833686#1 352057886#3 367833681#13 367833681#14"/>
    </vehicle>
    <vehicle id="8" depart="8.00">
        <route edges="-803640125#1 651100983#6 651100983#7 651100983#8 651100983#9 550168141#0 550168141#1 367833681#2 367833681#3 367833681#4 367833681#5 367833681#6 367833681#7 367833681#8 367833681#9 367833681#10 367833681#11 367833681#12 367833681#13 89905567#0 367833686#1 367833686#2"/>
    </vehicle>
    <vehicle id="9" depart="9.00">
        <route edges="526571563 195695179#1 526571558 526571559 526571613#0 549421606#1 549421606#2 549421606#3 549421606#4 549421606#5 549421606#6 549421637#1 -319977336#1 -319977336#0"/>
    </vehicle>
    <vehicle id="10" depart="10.00">
        <route edges="526571559 526571613#0 526571613#1 549421638#0 549421638#1 367833677#0 367833677#1 522155519#0 522155519#1 522155519#2 522155526 522155529"/>
    </vehicle>
    <vehicle id="11" depart="11.00">
        <route edges="319977336#0 319977336#1 549421637#2 549421637#3 549421637#4 352057886#0 352057886#1 352057886#2 367833686#2 367833686#3 367833686#4 367833686#5 367833686#6 367833686#7 367833686#8 367833686#9 367833686#10 367833686#11 367833686#12 306294367#1 550168135#0 -367458763#1 -367458763#0"/>
    </vehicle>
    <vehicle id="12" depart="12.00">
        <route edges="651100983#0 651100983#1 651100983#2 651100983#3 354080745#1 354080745#2 354080745#3 354080745#4 354080745#5 522155505#0 522155505#1 319977944#1 319977944#2 319977944#3 319977944#4"/>
    </vehicle>
    <vehicle id="13" depart="13.00">
        <route edges="-319978052#13 -319978052#12 -319978052#11 -319978052#10 -319978052#9 -319978052#8 -319978052#7 -319978052#6 -319978052#5 -319978052#4"/>
    </vehicle>
    <vehicle id="14" depart="14.00">
        <route edges="549421631#0 549421631#1 549421636#0 549421636#1 549421636#2 549421636#3 549421639#0 522163070#1 549421607#0 549421607#1 549421607#2 549421607#3 549421607#4 549421607#5 549421607#6 549421607#7 367833686#7"/>
    </vehicle>
    <vehicle id="15" depart="15.00">
        <route edges="526571561 306288153#1 526571564 526571565 549421607#7 367833686#7 522155485#1 522155485#2 522155485#3 319978052#8 522163067#5"/>
    </vehicle>
    <vehicle id="16" depart="16.00">
        <route edges="354080746#1 522155535#2 549421639#5 549421639#6 651100983#3 651100983#4 651100983#5 803640125#1"/>
    </vehicle>
    <vehicle id="17" depart="17.00">
        <route edges="319977944#0 522155505#2 522155505#3 522155505#4 522155505#5 367962989#0 367833681#4 367833681#5 367833681#6 367833681#7 367833681#8 367833681#9 367833681#10 367833681#11 367833681#12 367833681#13 367833681#14"/>
    </vehicle>
    <vehicle id="18" depart="18.00">
        <route edges="549421607#0 549421607#1 319977336#8 522155485#6 522155485#7 549421639#2 549421639#3 549421639#4 549421639#5 550168135#7 550168135#8 522155532#4 474873038"/>
    </vehicle>
    <vehicle id="19" depart="19.00">
        <route edges="549421636#0 549421636#1 549421636#2 549421636#3 549421639#0 522163070#1 549421607#0 549421607#1 549421607#2 549421607#3 549421607#4 549421607#5 549421607#6 549421607#7 367833686#7 367833686#8 367833686#9 367833686#10 367833686#11"/>
    </vehicle>
    <vehicle id="20" depart="20.00">
        <route edges="522155485#1 -367458763#5 -367458763#4 522155507#1 522155507#2 522155507#3 -319977944#1 -319977944#0"/>
    </vehicle>
    <vehicle id="21" depart="21.00">
        <route edges="-803640125#1 -803640125#0 550168135#4 319977336#14 319977336#15"/>
    </vehicle>
    <vehicle id="22" depart="22.00">
        <route edges="-319977944#7 571836453#6 571836453#7 571836453#8 571836453#9 367833686#5 298620578#2 298620578#3"/>
    </vehicle>
    <vehicle id="23" depart="23.00">
        <route edges="-319978052#3 319978052#3 319978052#4 319978052#5 319978052#6 319978052#7 319978052#8 319978052#9 319978052#10 319978052#11 550168135#3 550168135#4 319977336#14 319977336#15"/>
    </vehicle>
    <vehicle id="24" depart="24.00">
        <route edges="367833681#9 367833681#10 367833681#11 367833681#12 367833681#13 89905567#0 89905567#1 319978052#1 319978052#2"/>
    </vehicle>
    <vehicle id="25" depart="25.00">
        <route edges="319977336#5 571836453#5 571836453#6 -571836453#6"/>
    </vehicle>
    <vehicle id="26" depart="26.00">
        <route edges="195695179#0 195695179#1 526571558 526571559 526571613#0 549421606#1 571836453#4 571836453#5 571836453#6"/>
    </vehicle>
    <vehicle id="27" depart="27.00">
        <route edges="367833686#0 367833686#1 367833686#2 367833686#3 367833686#4 367833686#5 367833686#6 367833686#7 367833686#8 367833686#9"/>
    </vehicle>
    <vehicle id="28" depart="28.00">
        <route edges="-367458763#11 -367458763#10 -367458763#9 -367458763#8 298620578#4 298620578#5 298620578#6 -319977944#5 -319977944#4 -319977944#3 522163067#4"/>
    </vehicle>
    <vehicle id="29" depart="29.00">
        <route edges="-367395998#9 549421636#2 549421636#3 549421639#0 522163070#1 549421607#0 549421607#1 549421607#2 549421607#3 319978052#7"/>
    </vehicle>
    <vehicle id="30" depart="30.00">
        <route edges="89905567#2 -319977944#11 -319977944#10 -319977944#9 -319977944#8 -319977944#7 -319977944#6 -319977944#5 549421607#3 549421607#4 549421607#5 -367458763#6 522155485#2 522155485#3"/>
    </vehicle>
    <vehicle id="31" depart="31.00">
        <route edges="367458764#0 367458764#1 367458764#2 367458764#3 522155507#2 522155507#3 522155507#4"/>
    </vehicle>
    <vehicle id="33" depart="33.00">
        <route edges="-803640125#1 -803640125#0 319977944#0 319977944#1 319977944#2 319977944#3 319977944#4 319977944#5 298620578#7 -319977336#6 -319977336#5 -319977336#4"/>
    </vehicle>
    <vehicle id="34" depart="34.00">
        <route edges="306288564#0 306288564#1 522163070#0 522163070#1 549421607#0 549421607#1 319977336#8 319977336#9 319977336#10 319977336#11"/>
    </vehicle>
    <vehicle id="35" depart="35.00">
        <route edges="-571836453#7 319978052#5 298620578#6 298620578#7 298620578#8 526571613#0 526571613#1 549421639#0 549421639#1 549421639#2 549421639#3 549421639#4 549421639#5 550168135#7 550168135#8 522155532#4 651100983#1 651100983#2"/>
    </vehicle>
    <vehicle id="36" depart="36.00">
        <route edges="549421637#2 -319977944#10 -319977944#9 -319977944#8 -319977944#7 -319977944#6 -319977944#5 -319977944#4 -319977944#3 -319977944#2 -319977944#1 -319977944#0 319977944#0"/>
    </vehicle>
    <vehicle id="37" depart="37.00">
        <route edges="367833686#11 367833686#12 306294367#1 550168135#0 550168135#1 550168135#2 550168135#3 550168135#4 550168135#5 354080745#2 354080745#3 354080745#4 354080745#5 354080745#6 354080745#7 354080745#8 354080745#9 549421606#0 549421606#1 549421606#2 549421606#3 367395998#8 367395998#9 367395998#10 319989212#4"/>
    </vehicle>
    <vehicle id="38" depart="38.00">
        <route edges="550168135#7 550168135#8 522155532#4 651100983#1 651100983#2 651100983#3 354080745#1 354080745#2 354080745#3 354080745#4 354080745#5"/>
    </vehicle>
    <vehicle id="39" depart="39.00">
        <route edges="195695179#0 195695179#1 526571558 526571559 526571613#0 526571613#1 549421639#0 522163070#1 549421607#0 526571560 526571561 306288153#1"/>
    </vehicle>
    <vehicle id="40" depart="40.00">
        <route edges="367458764#0 651100983#8 651100983#9 550168141#0 550168141#1 367833681#2 550168137#1 367833686#12 306294367#1"/>
    </vehicle>
    <vehicle id="41" depart="41.00">
        <route edges="367458764#3 522155507#2 319978052#10 522155505#3 522155505#4 522155505#5 367833686#11 550168137#2"/>
    </vehicle>
    <vehicle id="42" depart="42.00">
        <route edges="319977944#7 319977944#8 367395998#5 367395998#6 -875868749"/>
    </vehicle>
    <vehicle id="43" depart="43.00">
        <route edges="975521587#0 319977336#13 319977336#14 651100983#5 651100983#6 651100983#7 367458764#1 367458764#2"/>
    </vehicle>
    <vehicle id="44" depart="44.00">
        <route edges="-319978052#11 -319978052#10 522155507#3 -319977944#1 -319977944#0"/>
    </vehicle>
    <vehicle id="45" depart="45.00">
        <route edges="-319978052#5 319978052#5 298620578#6 298620578#7 298620578#8 526571613#0 526571613#1 549421639#0 549421639#1 549421639#2 549421639#3 549421639#4 549421639#5 550168135#7 550168135#8 522155532#4 474873038"/>
    </vehicle>
    <vehicle id="46" depart="46.00">
        <route edges="522163067#3 319977944#3 319977944#4 319977944#5 298620578#7 298620578#8 526571613#0 549421606#1 549421606#2 549421606#3 549421606#4 549421606#5 352057870#7 352057870#8"/>
    </vehicle>
    <vehicle id="47" depart="47.00">
        <route edges="-319977944#12 -319977944#11 -319977944#10 -319977944#9 -319977944#8 -319977944#7 -319977944#6 -319977944#5 549421607#3 319978052#7"/>
    </vehicle>
    <vehicle id="48" depart="48.00">
        <route edges="89905567#4 549421609#0 549421631#1 549421636#0 549421636#1 549421636#2 549421636#3 549421638#0 549421638#1 367833677#0 367833677#1"/>
    </vehicle>
    <vehicle id="49" depart="49.00">
        <route edges="651100983#5 -803640125#0 550168135#4 550168135#5 550168135#6 549421639#6 549421639#7"/>
    </vehicle>
    <vehicle id="50" depart="50.00">
        <route edges="-319977336#15 -319977336#14 550168135#5 354080745#2 354080745#3 354080745#4 354080745#5 354080745#6 354080745#7 522163067#2"/>
    </vehicle>
    <vehicle id="51" depart="51.00">
        <route edges="367833690#0 -319977336#4 -367395998#5 -367395998#4 -367395998#3 -367395998#2 -367395998#1 -367395998#0 367833681#11"/>
    </vehicle>
    <vehicle id="52" depart="52.00">
        <route edges="195695179#0 195695179#1 526571558 526571559 526571613#0 526571613#1 549421639#0 522163070#1 549421607#0 549421607#1 549421607#2 549421607#3 319978052#7 522155485#4"/>
    </vehicle>
    <vehicle id="53" depart="53.00">
        <route edges="-319978052#6 298620578#6 298620578#7 298620578#8 526571613#0 549421606#1 549421606#2 549421606#3 549421606#4 549421606#5 352057870#7 352057870#8 352057882#3"/>
    </vehicle>
    <vehicle id="54" depart="54.00">
        <route edges="319989212#0 319989212#1 549421634#1 549421634#2 549421636#0 549421636#1 549421636#2 549421636#3 549421639#0 549421639#1 549421639#2 549421639#3 549421639#4 549421639#5 549421639#6 651100983#3 651100983#4 651100983#5 651100983#6"/>
    </vehicle>
    <vehicle id="55" depart="55.00">
        <route edges="549421637#1 549421637#2 549421637#3 549421637#4 352057886#0 352057886#1 352057886#2 367833686#2 367833686#3 367833686#4 367833686#5 367833686#6 367833686#7 367833686#8 367833686#9 367833686#10 367833686#11 367833686#12 306294367#1"/>
    </vehicle>
    <vehicle id="56" depart="56.00">
        <route edges="352057882#3 549421634#2 549421636#0 549421636#1 549421636#2 549421636#3 549421639#0 522163070#1 549421607#0 549421607#1 549421607#2 549421607#3 549421607#4 549421607#5 -367458763#6"/>
    </vehicle>
    <vehicle id="57" depart="57.00">
        <route edges="550168135#5 550168135#6 549421639#6 651100983#3 651100983#4 651100983#5 651100983#6 -319978052#12 550168135#3"/>
    </vehicle>
    <vehicle id="58" depart="58.00">
        <route edges="306288153#0 306288153#1 526571564 526571565 549421607#7 367833686#7 522155485#1 522155485#2 522155485#3"/>
    </vehicle>
    <vehicle id="59" depart="59.00">
        <route edges="367833681#0 367833681#1 367833681#2 550168137#1 367833686#12 306294367#1 550168135#0 -367458763#1 -367458763#0"/>
    </vehicle>
    <vehicle id="60" depart="60.00">
        <route edges="522155532#3 522155532#4 651100983#1 651100983#2 651100983#3 651100983#4 651100983#5 651100983#6 651100983#7 651100983#8 651100983#9 550168141#0 550168141#1 367833681#2 367833681#3 367833681#4 367833681#5 367833681#6 367833681#7 367833681#8 367833681#9 367833681#10 367833681#11 367833681#12"/>
    </vehicle>
    <vehicle id="61" depart="61.00">
        <route edges="522163060#0 522163060#1 522163064#0 522163064#1 522163073 549421638#1 367833677#0 367833677#1"/>
    </vehicle>
    <vehicle id="62" depart="62.00">
        <route edges="-319977336#10 -319977336#9 -319977336#8 549421607#2 319977944#5 319977944#6 319977944#7 319977944#8 319977944#9 319977944#10 319977944#11 319977944#12"/>
    </vehicle>
    <vehicle id="63" depart="63.00">
        <route edges="-319977336#15 -319977336#14 550168135#5 354080745#2 354080745#3 354080745#4 354080745#5 354080745#6 354080745#7 354080745#8 354080745#9 549421606#0 549421606#1 571836453#4"/>
    </vehicle>
    <vehicle id="64" depart="64.00">
        <route edges="549421637#2 319977944#11 89905567#3 89905567#4 549421609#0 549421631#1 549421636#0 549421636#1 549421636#2 549421636#3 549421638#0"/>
    </vehicle>
    <vehicle id="65" depart="65.00">
        <route edges="306288153#1 526571564 526571565 549421607#7 549421607#8 367833681#8 298620578#1 298620578#2 298620578#3 298620578#4 298620578#5 298620578#6 -319977944#5 -319977944#4"/>
    </vehicle>
    <vehicle id="66" depart="66.00">
        <route edges="549421637#2 319977944#11 89905567#3 89905567#4 549421609#0 549421631#1 549421636#0 549421636#1 549421636#2 549421636#3 549421639#0 549421639#1 549421639#2 549421639#3 549421639#4 549421639#5 549421639#6 651100983#3 651100983#4"/>
    </vehicle>
    <vehicle id="67" depart="67.00">
        <route edges="-319978052#10 -319978052#9 -319978052#8 -319978052#7 -319978052#6 -319978052#5 -319978052#4 367395998#4"/>
    </vehicle>
    <vehicle id="68" depart="68.00">
        <route edges="-319977944#2 522155507#4 522155507#5 354080745#7 354080745#8 354080745#9 549421606#0"/>
    </vehicle>
    <vehicle id="69" depart="69.00">
        <route edges="522155535#0 522155535#1 522155535#2 522155535#3 354080745#4 354080745#5 354080745#6 354080745#7 354080745#8 354080745#9 549421606#0 549421606#1 549421606#2 549421606#3 -367395998#7 -367395998#6 -367395998#5 -367395998#4 -367395998#3 -367395998#2 -367395998#1"/>
    </vehicle>
    <vehicle id="70" depart="70.00">
        <route edges="352057870#3 -319978052#2 549421637#4 352057886#0 352057886#1 352057886#2 352057886#3 367833681#13 367833681#14"/>
    </vehicle>
    <vehicle id="71" depart="71.00">
        <route edges="195695179#0 195695179#1 526571558 526571559 526571613#0 526571613#1 549421639#0 549421639#1 549421639#2 549421639#3 549421639#4 549421639#5 549421639#6 651100983#3 651100983#4 651100983#5 651100983#6 -319978052#12 550168135#3"/>
    </vehicle>
    <vehicle id="72" depart="72.00">
        <route edges="319978052#2 319978052#3 319978052#4 -571836453#6"/>
    </vehicle>
    <vehicle id="73" depart="73.00">
        <route edges="354080746#3 522163050#0 522163050#1 522163050#2 522163053 522163067#0 522163067#1 522163067#2 522163067#3 522163067#4 522163067#5"/>
    </vehicle>
    <vehicle id="74" depart="74.00">
        <route edges="-571836453#2 571836453#2 549421636#3 549421639#0 549421639#1 549421639#2 549421639#3 549421639#4 549421639#5 549421639#6 651100983#3 651100983#4 651100983#5 -803640125#0 319977944#0"/>
    </vehicle>
    <vehicle id="75" depart="75.00">
        <route edges="89905567#4 549421609#0 549421631#1 549421636#0 549421636#1 549421636#2 549421636#3 549421639#0 549421639#1 522155485#8"/>
    </vehicle>
    <vehicle id="76" depart="76.00">
        <route edges="319978052#7 319978052#8 522163067#5 367458764#5 367458764#6"/>
    </vehicle>
    <vehicle id="77" depart="77.00">
        <route edges="-352057870#1 367833686#3 367833686#4 367833686#5 298620578#2 526571562 526571563 195695179#1"/>
    </vehicle>
    <vehicle id="78" depart="78.00">
        <route edges="319977336#0 319977336#1 549421637#2 549421637#3 549421637#4 352057886#0 352057886#1 352057886#2 367833686#2"/>
    </vehicle>
    <vehicle id="79" depart="79.00">
        <route edges="-803640125#1 -803640125#0 550168135#4 550168135#5 354080745#2 354080745#3 354080745#4 354080745#5 354080745#6 354080745#7 354080745#8 354080745#9 549421606#0 549421606#1 549421606#2 549421606#3 -367395998#7 -875868749"/>
    </vehicle>
    <vehicle id="80" depart="80.00">
        <route edges="-319977944#4 522155485#5 522155485#6 522155485#7 549421639#2 549421639#3 549421639#4 549421639#5 550168135#7 550168135#8 522155532#4 474873038"/>
    </vehicle>
    <vehicle id="81" depart="81.00">
        <route edges="-803640125#1 651100983#6 651100983#7 651100983#8 651100983#9 550168141#0 550168141#1 550168141#2"/>
    </vehicle>
    <vehicle id="82" depart="82.00">
        <route edges="549421636#0 -352057870#7 549421606#6 549421637#1 549421637#2 549421637#3 -319978052#1 -319978052#0"/>
    </vehicle>
    <vehicle id="83" depart="83.00">
        <route edges="-975521587#0 354080745#3 354080745#4 354080745#5 522155505#0 522155505#1 522155505#2 522155505#3"/>
    </vehicle>
    <vehicle id="84" depart="84.00">
        <route edges="-571836453#9 -571836453#8 367458764#9 367395998#3 367395998#4 -367395998#4"/>
    </vehicle>
    <vehicle id="85" depart="85.00">
        <route edges="571836453#4 319977336#6 319977336#7 549421607#2 549421607#3 549421607#4 549421607#5 549421607#6 549421607#7 549421607#8 367833681#8 367833681#9"/>
    </vehicle>
    <vehicle id="86" depart="86.00">
        <route edges="352057870#1 -367458763#10 -367458763#9 -367458763#8 298620578#4 298620578#5 319978052#6 549421607#4"/>
    </vehicle>
    <vehicle id="87" depart="87.00">
        <route edges="526571561 306288153#1 526571564 526571565 549421607#7 549421607#8 367833681#8 298620578#1 298620578#2 298620578#3 298620578#4 298620578#5 298620578#6 298620578#7 298620578#8 526571613#0 549421606#1 549421606#2 -367833690#1"/>
    </vehicle>
    <vehicle id="88" depart="88.00">
        <route edges="-319978052#13 -319978052#12 550168135#3 550168135#4 550168135#5 354080745#2 354080745#3 354080745#4 354080745#5 354080745#6 354080745#7 354080745#8 354080745#9 549421606#0 549421606#1 549421606#2 549421606#3 367395998#8 367395998#9 352057882#2"/>
    </vehicle>
    <vehicle id="89" depart="89.00">
        <route edges="319978052#2 319978052#3 367395998#4 367395998#5 367395998#6 367395998#7 367395998#8 549421636#2 549421636#3 549421639#0 549421639#1 549421639#2 522163067#1 354080745#8 354080745#9"/>
    </vehicle>
    <vehicle id="90" depart="90.00">
        <route edges="522155505#2 522155505#3 522155505#4 522155505#5"/>
    </vehicle>
    <vehicle id="91" depart="91.00">
        <route edges="89905567#1 319978052#1 319978052#2 319978052#3 319978052#4 319978052#5 -319978052#5"/>
    </vehicle>
    <vehicle id="92" depart="92.00">
        <route edges="319977944#8 -319977944#8 -319977944#7 -319977944#6 -319977944#5 -319977944#4 319977944#4"/>
    </vehicle>
    <vehicle id="93" depart="93.00">
        <route edges="549421636#0 549421636#1 549421636#2 549421636#3 549421639#0 522163070#1 549421607#0 526571560 526571561 306288153#1"/>
    </vehicle>
    <vehicle id="94" depart="94.00">
        <route edges="-367458763#9 -571836453#8 367458764#9 367395998#3 367395998#4 367395998#5 367395998#6 367395998#7 549421606#4 549421606#5 549421606#6 549421606#7 549421609#0 549421609#1 352057882#5"/>
    </vehicle>
    <vehicle id="95" depart="95.00">
        <route edges="319978052#11 550168135#3 550168135#4 319977336#14 319977336#15"/>
    </vehicle>
    <vehicle id="96" depart="96.00">
        <route edges="195695179#0 195695179#1 526571558 526571559 526571613#0 526571613#1 549421639#0 549421639#1 549421639#2 549421639#3 549421639#4 549421639#5 549421639#6 651100983#3 651100983#4 651100983#5 651100983#6 651100983#7 651100983#8 651100983#9 550168141#0 367833686#14 550168142#1 550168142#2"/>
    </vehicle>
    <vehicle id="97" depart="97.00">
        <route edges="319978052#9 319978052#10 319978052#11 550168135#3 550168135#4 550168135#5 550168135#6 549421639#6 549421639#7"/>
    </vehicle>
    <vehicle id="98" depart="98.00">
        <route edges="367395998#5 -319977336#3 -319977336#2 549421637#2 -319977944#10"/>
    </vehicle>
    <vehicle id="99" depart="99.00">
        <route edges="975521587#0 -319977336#12 -319977336#11 522155507#5 354080745#7 354080745#8 354080745#9 549421606#0 526571613#1 549421639#0 549421639#1"/>
    </vehicle>
    <vehicle id="100" depart="100.00">
        <route edges="651100983#5 -803640125#0 550168135#4 550168135#5 354080745#2 354080745#3 354080745#4 354080745#5 354080745#6 354080745#7 354080745#8 354080745#9 549421606#0 549421606#1 -571836453#3 -571836453#2 571836453#2"/>
    </vehicle>
    <vehicle id="101" depart="101.00">
        <route edges="549421631#0 549421631#1 549421636#0 549421636#1 549421636#2 549421636#3 549421639#0 522163070#1 549421607#0 549421607#1 549421607#2 549421607#3 549421607#4 549421607#5 -367458763#6 -367458763#5 -367458763#4 -367458763#3 -367458763#2"/>
    </vehicle>
    <vehicle id="102" depart="102.00">
        <route edges="352057870#8 -352057870#8 549421636#1 -367395998#8 -367395998#7 -367395998#6 -367395998#5 -367395998#4 -367395998#3 -367395998#2 -367458763#9 -571836453#8 -571836453#7"/>
    </vehicle>
    <vehicle id="103" depart="103.00">
        <route edges="319977944#8 -319977944#8 -319977944#7 -319977944#6 -319977944#5 -319977944#4"/>
    </vehicle>
    <vehicle id="104" depart="104.00">
        <route edges="319977944#0 522155505#2 522155505#3 522155505#4 522155505#5 367962989#0 367833681#4 367833681#5 367833681#6 367833681#7 367833681#8 367833681#9 367833681#10 367833681#11 367833681#12 367833681#13 89905567#0 89905567#1"/>
    </vehicle>
    <vehicle id="105" depart="105.00">
        <route edges="195695179#0 195695179#1 526571558 526571559 526571613#0 526571613#1 549421639#0 522163070#1 549421607#0 549421607#1 549421607#2 549421607#3 549421607#4"/>
    </vehicle>
    <vehicle id="106" depart="106.00">
        <route edges="319989212#0 319989212#1 549421634#1 549421634#2 549421636#0 352057870#8"/>
    </vehicle>
    <vehicle id="107" depart="107.00">
        <route edges="651100983#0 651100983#1 651100983#2 651100983#3 354080745#1 354080745#2 975521587#0"/>
    </vehicle>
    <vehicle id="108" depart="108.00">
        <route edges="367395998#9 367395998#10 319989212#4 319989212#5 367833677#0 367833677#1 522155519#0 522163060#1 522163067#0"/>
    </vehicle>
    <vehicle id="109" depart="109.00">
        <route edges="-367395998#4 367395998#4 367395998#5 -319977336#3 319977336#3"/>
    </vehicle>
    <vehicle id="110" depart="110.00">
        <route edges="651100983#5 651100983#6 -319978052#12 -319978052#11 522155505#3 522155505#4 522155505#5 367833686#11"/>
    </vehicle>
    <vehicle id="111" depart="111.00">
        <route edges="367395998#1 367395998#2 367395998#3 367395998#4 367395998#5 367395998#6 367395998#7 367395998#8 549421636#2 549421636#3 549421639#0 522163070#1 549421607#0 526571560 526571561 306288153#1 526571564"/>
    </vehicle>
    <vehicle id="112" depart="112.00">
        <route edges="-319977944#12 -319977944#11 549421637#3 549421637#4 352057886#0 352057886#1 352057886#2 367833686#2 367833686#3 367833686#4 367833686#5 367833686#6 367833686#7 367833686#8 367833686#9 367833686#10 367833686#11 367833686#12 367833686#13 367833686#14 367833686#15"/>
    </vehicle>
    <vehicle id="113" depart="113.00">
        <route edges="352057886#2 367833686#2 367833686#3 367833686#4 367833686#5 367833686#6 367833686#7 367833686#8 367833686#9 367833686#10 367833686#11 367833686#12 306294367#1 550168135#0 550168135#1 550168135#2 550168135#3 550168135#4 550168135#5 550168135#6 549421639#6 549421639#7"/>
    </vehicle>
    <vehicle id="114" depart="114.00">
        <route edges="-367395998#5 -319977944#8 -319977944#7 -319977944#6 -319977944#5 -319977944#4 -319977944#3 -319977944#2 -319977944#1 -319977944#0 803640125#0 803640125#1"/>
    </vehicle>
    <vehicle id="115" depart="115.00">
        <route edges="-319977944#8 319977944#8 -367395998#4 -367395998#3 -367395998#2 -367458763#9"/>
    </vehicle>
    <vehicle id="116" depart="116.00">
        <route edges="367458764#8 571836453#8 571836453#9 367833686#5 367833686#6 367833686#7 367833686#8 367833686#9 522155507#0"/>
    </vehicle>
    <vehicle id="117" depart="117.00">
        <route edges="-875868749 549421606#5 -352057870#6 -352057870#5"/>
    </vehicle>
    <vehicle id="118" depart="118.00">
        <route edges="549421639#1 549421639#2 522163067#1 354080745#8 354080745#9 549421607#0 526571560 526571561 306288153#1"/>
    </vehicle>
    <vehicle id="119" depart="119.00">
        <route edges="367458764#8 571836453#8 -367458763#8 298620578#4 298620578#5 298620578#6 298620578#7 298620578#8 526571613#0 526571613#1 549421639#0 549421639#1 549421639#2 549421639#3 549421639#4 549421639#5 550168135#7 550168135#8 522155532#4 474873038"/>
    </vehicle>
    <vehicle id="120" depart="120.00">
        <route edges="319978052#11 319978052#12 651100983#7 651100983#8 651100983#9 550168141#0 367833686#14 367833686#15"/>
    </vehicle>
    <vehicle id="121" depart="121.00">
        <route edges="354080745#3 354080745#4 354080745#5 354080745#6 354080745#7 354080745#8 354080745#9 549421607#0 549421607#1 549421607#2 319977944#5 319977944#6 571836453#6"/>
    </vehicle>
    <vehicle id="122" depart="122.00">
        <route edges="-571836453#4 -571836453#3 549421636#3 549421639#0 549421639#1 522155485#8 522163064#1"/>
    </vehicle>
    <vehicle id="123" depart="123.00">
        <route edges="-975521587#0 354080745#3 354080745#4 354080745#5 354080745#6 354080745#7 354080745#8 354080745#9 549421606#0 549421606#1 549421606#2 549421606#3 367395998#8 367395998#9 367395998#10 319989212#4"/>
    </vehicle>
    <vehicle id="124" depart="124.00">
        <route edges="367833686#6 549421607#8 367833681#8 298620578#1 298620578#2 298620578#3 298620578#4 298620578#5 298620578#6 298620578#7 -319977336#6 -319977336#5 319977336#5"/>
    </vehicle>
    <vehicle id="125" depart="125.00">
        <route edges="306294367#0 367833686#13 550168141#1 367833681#2 367833681#3 367833681#4 367833681#5 367833681#6 367833681#7 367833681#8 298620578#1 298620578#2 526571562 526571563 195695179#1 526571610"/>
    </vehicle>
    <vehicle id="126" depart="126.00">
        <route edges="-319977944#4 522155485#5 522155485#6 522155485#7 549421639#2 549421639#3 549421639#4 522155535#3 354080745#4 354080745#5"/>
    </vehicle>
    <vehicle id="127" depart="127.00">
        <route edges="975521587#0"/>
    </vehicle>
    <vehicle id="128" depart="128.00">
        <route edges="-319977944#4 319977944#4 549421607#3 549421607#4 367458764#7 367458764#8 -571836453#7"/>
    </vehicle>
    <vehicle id="129" depart="129.00">
        <route edges="195695179#0 195695179#1 526571558 526571559 526571613#0 549421606#1 571836453#4 571836453#5"/>
    </vehicle>
    <vehicle id="130" depart="130.00">
        <route edges="549421637#3 -319978052#1 89905567#2 89905567#3 89905567#4 549421609#0 549421631#1 549421636#0 549421636#1 549421636#2 549421636#3 549421639#0 549421639#1 549421639#2 549421639#3 549421639#4 549421639#5 550168135#7"/>
    </vehicle>
    <vehicle id="131" depart="131.00">
        <route edges="319977336#5 319977336#6 319977336#7 319977336#8 319977336#9 319977336#10 319977336#11 522155505#1 522155505#2 522155505#3 522155505#4 -367458763#2 -367458763#1 -367458763#0"/>
    </vehicle>
    <vehicle id="132" depart="132.00">